2024_89_CemigReconfigurationCases/1_AlimsCemig/SND04/SND04SegmentosMT.dss
new line.TR12176631 bus1=BMT891252B.1.2.3,bus2=BMT8775703B.1.2.3,Phases=3,Linecode=CABA06_3_3,Length=0.037341000,Units=km
new line.TR12179497 bus1=BMT160816348.1.2.3,bus2=BMT6852117B.1.2.3,Phases=3,Linecode=CAB203_3_3,Length=0.018030000,Units=km
new line.TR12180302 bus1=BMT1459365B.1.2.3,bus2=BMT150617735.1.2.3,Phases=3,Linecode=CAB203_3_3,Length=0.033125000,Units=km
new line.TR12180346 bus1=BMT150617735.1.2.3,bus2=BMT125464623.1.2.3,Phases=3,Linecode=CAB203_3_3,Length=0.020811000,Units=km
new line.TR12180516 bus1=BMT125464693.1.2.3,bus2=BMT150624422.1.2.3,Phases=3,Linecode=CAB203_3_3,Length=0.024355000,Units=km
new line.TR12180517 bus1=BMT2867114B.1.2.3,bus2=BMT150624422.1.2.3,Phases=3,Linecode=CAB203_3_3,Length=0.049986000,Units=km
new line.TR12274435 bus1=BMT125501394.1.2.3,bus2=BMT8877864B.1.2.3,Phases=3,Linecode=CAB203_3_3,Length=0.055087000,Units=km
new line.TR12274437 bus1=BMT8877864B.1.2.3,bus2=BMT8877865B.1.2.3,Phases=3,Linecode=CAB203_3_3,Length=0.018113000,Units=km
new line.TR12274442 bus1=BMT8877865B.1.2.3,bus2=BMT153903877.1.2.3,Phases=3,Linecode=CAB203_3_3,Length=0.023089000,Units=km
new line.TR12276178 bus1=BMT154712596.3,bus2=BMT69984B.3,Phases=1,Linecode=CABA06_3_1,Length=0.011403000,Units=km
new line.TR12276180 bus1=BMT154712597.3,bus2=BMT69956B.3,Phases=1,Linecode=CABA06_3_1,Length=0.057014000,Units=km
new line.TR12276181 bus1=BMT69956B.3,bus2=BMT69949B.3,Phases=1,Linecode=CABA06_3_1,Length=0.061917000,Units=km
new line.TR12276182 bus1=BMT69949B.3,bus2=BMT2301829B.3,Phases=1,Linecode=CABA06_3_1,Length=0.039209000,Units=km
new line.TR12276185 bus1=BMT2301829B.3,bus2=BMT154712598.3,Phases=1,Linecode=CABA06_3_1,Length=0.043086000,Units=km
new line.TR12276202 bus1=BMT154712802.1.2.3,bus2=BMT154712803.1.2.3,Phases=3,Linecode=CAB103_3_3,Length=0.023772000,Units=km
new line.TR12276203 bus1=BMT154712803.1.2.3,bus2=BMT154712804.1.2.3,Phases=3,Linecode=CAB103_3_3,Length=0.019725000,Units=km
new line.TR12276305 bus1=BMT125501170.1.2.3,bus2=BMT3107767B.1.2.3,Phases=3,Linecode=CAB204_3_3,Length=0.024416000,Units=km
new line.TR12276325 bus1=BMT3107767B.1.2.3,bus2=BMT154700291.1.2.3,Phases=3,Linecode=CAB204_3_3,Length=0.121708000,Units=km
new line.TR12276328 bus1=BMT154700291.1.2.3,bus2=BMT153975240.1.2.3,Phases=3,Linecode=CABA06_3_3,Length=0.048420000,Units=km
new line.TR12276329 bus1=BMT153975645.1.2.3,bus2=BMT153975646.1.2.3,Phases=3,Linecode=CABA06_3_3,Length=0.022674000,Units=km
new line.TR12276330 bus1=BMT153975646.1.2.3,bus2=BMT153975647.1.2.3,Phases=3,Linecode=CABA06_3_3,Length=0.009221000,Units=km
new line.TR12276331 bus1=BMT153975648.1.2.3,bus2=BMT153975257.1.2.3,Phases=3,Linecode=CABA06_3_3,Length=0.015622000,Units=km
new line.TR12276332 bus1=BMT154700276.1.2.3,bus2=BMT8879527B.1.2.3,Phases=3,Linecode=CABA06_3_3,Length=0.039829000,Units=km
new line.TR12276337 bus1=BMT2736564B.1.2.3,bus2=BMT154700292.1.2.3,Phases=3,Linecode=CAB202_3_3,Length=0.057988000,Units=km
new line.TR12276346 bus1=BMT8879527B.1.2.3,bus2=BMT1319414B.1.2.3,Phases=3,Linecode=CABA06_3_3,Length=0.077085000,Units=km
new line.TR12276349 bus1=BMT149066863.1.2.3,bus2=BMT154700277.1.2.3,Phases=3,Linecode=CAB204_3_3,Length=0.043662000,Units=km
new line.TR12276351 bus1=BMT154700291.1.2.3,bus2=BMT8879529D.1.2.3,Phases=3,Linecode=CABA06_3_3,Length=0.072409000,Units=km
new line.TR12276352 bus1=BMT8879529D.1.2.3,bus2=BMT8879527D.1.2.3,Phases=3,Linecode=CABA06_3_3,Length=0.063133000,Units=km
new line.TR12276353 bus1=BMT8879527D.1.2.3,bus2=BMT1319414D.1.2.3,Phases=3,Linecode=CABA06_3_3,Length=0.077085000,Units=km
new line.TR12276729 bus1=BMT2826563B.2,bus2=BMT161139130.2,Phases=1,Linecode=CAB202_3_1,Length=0.090063000,Units=km
new line.TR12276730 bus1=BMT161139130.2,bus2=BMT161139131.2,Phases=1,Linecode=CAB202_3_1,Length=0.065873000,Units=km
new line.TR12276788 bus1=BMT161139132.2,bus2=BMT8879903B.2,Phases=1,Linecode=CAB103_3_1,Length=0.059473000,Units=km
new line.TR12276789 bus1=BMT8879903B.2,bus2=BMT8879905B.2,Phases=1,Linecode=CAB103_3_1,Length=0.041116000,Units=km
new line.TR12276790 bus1=BMT8879905B.2,bus2=BMT8879935B.2,Phases=1,Linecode=CAB103_3_1,Length=0.075675000,Units=km
new line.TR12276791 bus1=BMT8879935B.2,bus2=BMT161139133.2,Phases=1,Linecode=CAB103_3_1,Length=0.079416000,Units=km
new line.TR12276792 bus1=BMT161139133.2,bus2=BMT161139134.2,Phases=1,Linecode=CAB202_3_1,Length=0.099332000,Units=km
new line.TR12279928 bus1=BMT1337929B.1,bus2=BMT160801455.1,Phases=1,Linecode=CAB202_3_1,Length=0.135109000,Units=km
new line.TR12279929 bus1=BMT160801455.1,bus2=BMT160801456.1,Phases=1,Linecode=CAB202_3_1,Length=0.130112000,Units=km
new line.TR12279932 bus1=BMT160801455.1,bus2=BMT160801457.1,Phases=1,Linecode=CAB103_3_1,Length=0.020521000,Units=km
new line.TR12280234 bus1=BMT161368562.2,bus2=BMT8883017B.2,Phases=1,Linecode=CAB202_3_1,Length=0.150019000,Units=km
new line.TR12280235 bus1=BMT8883017B.2,bus2=BMT161368563.2,Phases=1,Linecode=CAB202_3_1,Length=0.163324000,Units=km
new line.TR12281158 bus1=BMT2779005B.3,bus2=BMT8883867B.3,Phases=1,Linecode=CAB202_3_1,Length=0.144333000,Units=km
new line.TR12281159 bus1=BMT8883867B.3,bus2=BMT156677404.3,Phases=1,Linecode=CAB202_3_1,Length=0.129992000,Units=km
new line.TR12282739 bus1=BMT161315435.1,bus2=BMT161315436.1,Phases=1,Linecode=CAB103_3_1,Length=0.031405000,Units=km
new line.TR12282742 bus1=BMT161315436.1,bus2=BMT8885348B.1,Phases=1,Linecode=CAB202_3_1,Length=0.180021000,Units=km
new line.TR12282743 bus1=BMT8885348B.1,bus2=BMT8885349B.1,Phases=1,Linecode=CAB202_3_1,Length=0.054413000,Units=km
new line.TR12282744 bus1=BMT8885349B.1,bus2=BMT8885352B.1,Phases=1,Linecode=CAB202_3_1,Length=0.152070000,Units=km
new line.TR12282745 bus1=BMT8885352B.1,bus2=BMT161315437.1,Phases=1,Linecode=CAB202_3_1,Length=0.163237000,Units=km
new line.TR12345964 bus1=BMT748858B.1.2.3,bus2=BMT8949163B.1.2.3,Phases=3,Linecode=CAB102_3_3,Length=0.014562000,Units=km
new line.TR12345965 bus1=BMT8949163B.1.2.3,bus2=BMT156464132.1.2.3,Phases=3,Linecode=CAB102_3_3,Length=0.012044000,Units=km
new line.TR12346668 bus1=BMT156489115.1.2.3,bus2=BMT739261B.1.2.3,Phases=3,Linecode=CABA06_3_3,Length=0.027463000,Units=km
new line.TR12346669 bus1=BMT739261B.1.2.3,bus2=BMT739254B.1.2.3,Phases=3,Linecode=CABA06_3_3,Length=0.023198000,Units=km
new line.TR12346670 bus1=BMT739254B.1.2.3,bus2=BMT8949901B.1.2.3,Phases=3,Linecode=CABA06_3_3,Length=0.029551000,Units=km
new line.TR12346671 bus1=BMT8949901B.1.2.3,bus2=BMT156489116.1.2.3,Phases=3,Linecode=CABA06_3_3,Length=0.029971000,Units=km
new line.TR12346672 bus1=BMT156489116.1.2.3,bus2=BMT8949976B.1.2.3,Phases=3,Linecode=CABA06_3_3,Length=0.043835000,Units=km
new line.TR12154499 bus1=BMT741011B.1.2.3,bus2=BMT158332046.1.2.3,Phases=3,Linecode=CABA08_3_3,Length=0.010002000,Units=km
new line.TR12154500 bus1=BMT158332046.1.2.3,bus2=BMT158332047.1.2.3,Phases=3,Linecode=CABA08_3_3,Length=0.011002000,Units=km
new line.TR12154612 bus1=BMT158332309.1.2.3,bus2=BMT158332310.1.2.3,Phases=3,Linecode=CAB609_3_3,Length=0.042113000,Units=km
new line.TR12154631 bus1=BMT158332310.1.2.3,bus2=BMT158332311.1.2.3,Phases=3,Linecode=CAB609_3_3,Length=0.004001000,Units=km
new line.TR12154632 bus1=BMT158332311.1.2.3,bus2=BMT158332312.1.2.3,Phases=3,Linecode=CAB004_3_3,Length=0.022003000,Units=km
new line.TR12162829 bus1=BMT1855306B.3,bus2=BMT159106792.3,Phases=1,Linecode=CAB204_3_1,Length=0.153077000,Units=km
new line.TR12162830 bus1=BMT159106792.3,bus2=BMT125510732.3,Phases=1,Linecode=CAB204_3_1,Length=0.219030000,Units=km
new line.TR12162833 bus1=BMT159106792.3,bus2=BMT8759303B.3,Phases=1,Linecode=CAB103_3_1,Length=0.036061000,Units=km
new line.TR12162834 bus1=BMT8759303B.3,bus2=BMT159106793.3,Phases=1,Linecode=CAB103_3_1,Length=0.077632000,Units=km
new line.TR12246261 bus1=BMT160650611.1,bus2=BMT160650614.1,Phases=1,Linecode=CAB202_3_1,Length=0.315242000,Units=km
new line.TR12246270 bus1=BMT160650611.1,bus2=BMT152972587.1,Phases=1,Linecode=CAB202_3_1,Length=0.024763000,Units=km
new line.TR12246271 bus1=BMT161074678.1,bus2=BMT2940215B.1,Phases=1,Linecode=CAB202_3_1,Length=0.316620000,Units=km
new line.TR12246546 bus1=BMT168169208.3,bus2=BMT168169210.3,Phases=1,Linecode=CAB202_3_1,Length=0.237005000,Units=km
new line.TR12249796 bus1=BMT169496382.1,bus2=BMT8851261B.1,Phases=1,Linecode=CAB202_3_1,Length=0.059147000,Units=km
new line.TR12249797 bus1=BMT8851261B.1,bus2=BMT8851263B.1,Phases=1,Linecode=CAB202_3_1,Length=0.068555000,Units=km
new line.TR12249798 bus1=BMT8851263B.1,bus2=BMT8851264B.1,Phases=1,Linecode=CAB202_3_1,Length=0.066496000,Units=km
new line.TR12249799 bus1=BMT8851264B.1,bus2=BMT8851266B.1,Phases=1,Linecode=CAB202_3_1,Length=0.301757000,Units=km
new line.TR12249803 bus1=BMT8851266B.1,bus2=BMT8851267B.1,Phases=1,Linecode=CAB202_3_1,Length=0.059248000,Units=km
new line.TR12249804 bus1=BMT8851267B.1,bus2=BMT8851270B.1,Phases=1,Linecode=CAB202_3_1,Length=0.272456000,Units=km
new line.TR12249805 bus1=BMT8851270B.1,bus2=BMT169496383.1,Phases=1,Linecode=CAB202_3_1,Length=0.126850000,Units=km
new line.TR12249806 bus1=BMT169496385.1,bus2=BMT8851275B.1,Phases=1,Linecode=CAB202_3_1,Length=0.100099000,Units=km
new line.TR12249807 bus1=BMT8851275B.1,bus2=BMT169496386.1,Phases=1,Linecode=CAB202_3_1,Length=0.060045000,Units=km
new line.TR12249808 bus1=BMT169496386.1,bus2=BMT169496387.1,Phases=1,Linecode=CAB202_3_1,Length=0.235179000,Units=km
new line.TR12310908 bus1=BMT156840937.1.2.3,bus2=BMT156840939.1.2.3,Phases=3,Linecode=CAB102_3_3,Length=0.035907000,Units=km
new line.TR12311577 bus1=BMT155194827.3,bus2=BMT155194838.3,Phases=1,Linecode=CAB103_3_1,Length=0.055581000,Units=km
new line.TR12400028 bus1=BMT158241666.3,bus2=BMT9006126B.3,Phases=1,Linecode=CAB202_3_1,Length=0.029159000,Units=km
new line.TR12400029 bus1=BMT9006126B.3,bus2=BMT9006128B.3,Phases=1,Linecode=CAB202_3_1,Length=0.089332000,Units=km
new line.TR12400040 bus1=BMT9006128B.3,bus2=BMT158241668.3,Phases=1,Linecode=CAB202_3_1,Length=0.059942000,Units=km
new line.TR12400590 bus1=BMT159106785.3,bus2=BMT9006919B.3,Phases=1,Linecode=CAB203_3_1,Length=0.236275000,Units=km
new line.TR12400591 bus1=BMT9006919B.3,bus2=BMT159106788.3,Phases=1,Linecode=CAB203_3_1,Length=0.099739000,Units=km
new line.TR12400944 bus1=BMT172366721.2,bus2=BMT9007202B.2,Phases=1,Linecode=CAB103_3_1,Length=0.026837000,Units=km
new line.TR12400946 bus1=BMT9007202B.2,bus2=BMT172366722.2,Phases=1,Linecode=CAB103_3_1,Length=0.065308000,Units=km
new line.TR12401420 bus1=BMT169349030.3,bus2=BMT169349032.3,Phases=1,Linecode=CAB202_3_1,Length=0.295202000,Units=km
new line.TR12401421 bus1=BMT169349032.3,bus2=BMT169349033.3,Phases=1,Linecode=CAB202_3_1,Length=0.040255000,Units=km
new line.TR12401434 bus1=BMT169349032.3,bus2=BMT169349034.3,Phases=1,Linecode=CAB103_3_1,Length=0.069350000,Units=km
new line.TR12401631 bus1=BMT2836559B.1,bus2=BMT9008216B.1,Phases=1,Linecode=CAB202_3_1,Length=0.307036000,Units=km
new line.TR12401636 bus1=BMT9008216B.1,bus2=BMT158295271.1,Phases=1,Linecode=CAB202_3_1,Length=0.016002000,Units=km
new line.TR12401638 bus1=BMT158295272.1,bus2=BMT158295274.1,Phases=1,Linecode=CAB202_3_1,Length=0.013002000,Units=km
new line.TR12402525 bus1=BMT158315796.3,bus2=BMT158315798.3,Phases=1,Linecode=CAB202_3_1,Length=0.050614000,Units=km
new line.TR12402526 bus1=BMT158315798.3,bus2=BMT125510648.3,Phases=1,Linecode=CAB202_3_1,Length=0.062811000,Units=km
new line.TR12402906 bus1=BMT158332308.1.2.3,bus2=BMT158332309.1.2.3,Phases=3,Linecode=CAB609_3_3,Length=0.004001000,Units=km
new line.TR12402907 bus1=BMT158332309.1.2.3,bus2=BMT8750195B.1.2.3,Phases=3,Linecode=CAB609_3_3,Length=0.009488000,Units=km
new line.TR12402961 bus1=BMT162500349.2,bus2=BMT9009410B.2,Phases=1,Linecode=CAB203_3_1,Length=0.112907000,Units=km
new line.TR12402964 bus1=BMT9009410B.2,bus2=BMT9009411B.2,Phases=1,Linecode=CAB203_3_1,Length=0.114250000,Units=km
new line.TR12402965 bus1=BMT9009411B.2,bus2=BMT162500351.2,Phases=1,Linecode=CAB203_3_1,Length=0.164557000,Units=km
new line.TR12403546 bus1=BMT158346093.1,bus2=BMT158346094.1,Phases=1,Linecode=CAB202_3_1,Length=0.010819000,Units=km
new line.TR12403547 bus1=BMT158650085.1,bus2=BMT2736200B.1,Phases=1,Linecode=CAB202_3_1,Length=0.043608000,Units=km
new line.TR12403690 bus1=BMT154199670.1,bus2=BMT9010212B.1,Phases=1,Linecode=CAB203_3_1,Length=0.145908000,Units=km
new line.TR12403691 bus1=BMT9010212B.1,bus2=BMT9010213B.1,Phases=1,Linecode=CAB203_3_1,Length=0.076174000,Units=km
new line.TR12403693 bus1=BMT9010213B.1,bus2=BMT9010214B.1,Phases=1,Linecode=CAB203_3_1,Length=0.052332000,Units=km
new line.TR12403694 bus1=BMT9010214B.1,bus2=BMT9010215B.1,Phases=1,Linecode=CAB203_3_1,Length=0.071577000,Units=km
new line.TR12403697 bus1=BMT9010215B.1,bus2=BMT158351233.1,Phases=1,Linecode=CAB203_3_1,Length=0.162257000,Units=km
new line.TR12405365 bus1=BMT1436867B.3,bus2=BMT9012082B.3,Phases=1,Linecode=CAB102_3_1,Length=0.039006000,Units=km
new line.TR12405366 bus1=BMT9012082B.3,bus2=BMT158415562.3,Phases=1,Linecode=CAB102_3_1,Length=0.034005000,Units=km
new line.TR12405382 bus1=BMT158415558.3,bus2=BMT9012089B.3,Phases=1,Linecode=CAB102_3_1,Length=0.030004000,Units=km
new line.TR12405383 bus1=BMT9012089B.3,bus2=BMT1436846B.3,Phases=1,Linecode=CAB102_3_1,Length=0.033020000,Units=km
new line.TR12164345 bus1=BMT2736431B.1,bus2=BMT158650095.1,Phases=1,Linecode=CAB202_3_1,Length=0.383964000,Units=km
new line.TR12164346 bus1=BMT158650095.1,bus2=BMT158650096.1,Phases=1,Linecode=CAB202_3_1,Length=0.025243000,Units=km
new line.TR12164348 bus1=BMT158650095.1,bus2=BMT158650097.1,Phases=1,Linecode=CAB103_3_1,Length=0.044053000,Units=km
new line.TR12164451 bus1=BMT125487940.1,bus2=BMT167247410.1,Phases=1,Linecode=CAB202_3_1,Length=0.160206000,Units=km
new line.TR12164452 bus1=BMT171019532.1,bus2=BMT8761583B.1,Phases=1,Linecode=CAB202_3_1,Length=0.110326000,Units=km
new line.TR12164453 bus1=BMT8761583B.1,bus2=BMT171019533.1,Phases=1,Linecode=CAB202_3_1,Length=0.037489000,Units=km
new line.TR12164454 bus1=BMT171019533.1,bus2=BMT171019534.1,Phases=1,Linecode=CAB202_3_1,Length=0.054460000,Units=km
new line.TR12167042 bus1=BMT174753B.2,bus2=BMT150102841.2,Phases=1,Linecode=CAB102_3_1,Length=0.031406000,Units=km
new line.TR12235866 bus1=BMT161074679.1,bus2=BMT8837419B.1,Phases=1,Linecode=CAB202_3_1,Length=0.086743000,Units=km
new line.TR12235867 bus1=BMT8837419B.1,bus2=BMT8837420B.1,Phases=1,Linecode=CAB202_3_1,Length=0.195286000,Units=km
new line.TR12235868 bus1=BMT8837420B.1,bus2=BMT8837421B.1,Phases=1,Linecode=CAB202_3_1,Length=0.156874000,Units=km
new line.TR12235869 bus1=BMT8837421B.1,bus2=BMT161074681.1,Phases=1,Linecode=CAB202_3_1,Length=0.039931000,Units=km
new line.TR12240405 bus1=BMT170305197.2,bus2=BMT170305200.2,Phases=1,Linecode=CAB202_3_1,Length=0.200601000,Units=km
new line.TR12240406 bus1=BMT170305200.2,bus2=BMT170305201.2,Phases=1,Linecode=CAB202_3_1,Length=0.259839000,Units=km
new line.TR12240529 bus1=BMT160801136.3,bus2=BMT8842453B.3,Phases=1,Linecode=CAB202_3_1,Length=0.594450000,Units=km
new line.TR12240530 bus1=BMT8842453B.3,bus2=BMT160801138.3,Phases=1,Linecode=CAB202_3_1,Length=0.257076000,Units=km
new line.TR12241340 bus1=BMT164849461.2,bus2=BMT164849462.2,Phases=1,Linecode=CAB202_3_1,Length=0.287173000,Units=km
new line.TR12241341 bus1=BMT164849462.2,bus2=BMT164849463.2,Phases=1,Linecode=CAB202_3_1,Length=0.014767000,Units=km
new line.TR12241349 bus1=BMT164849462.2,bus2=BMT164849464.2,Phases=1,Linecode=CAB202_3_1,Length=0.176500000,Units=km
new line.TR12242243 bus1=BMT160183130.1,bus2=BMT160183131.1,Phases=1,Linecode=CAB103_3_1,Length=0.013155000,Units=km
new line.TR12242245 bus1=BMT160183131.1,bus2=BMT160183132.1,Phases=1,Linecode=CAB202_3_1,Length=0.099502000,Units=km
new line.TR12242253 bus1=BMT170305200.2,bus2=BMT8843952B.2,Phases=1,Linecode=CAB202_3_1,Length=0.167705000,Units=km
new line.TR12242254 bus1=BMT8843952B.2,bus2=BMT170305202.2,Phases=1,Linecode=CAB202_3_1,Length=0.305157000,Units=km
new line.TR12243110 bus1=BMT169521601.3,bus2=BMT8844754B.3,Phases=1,Linecode=CAB202_3_1,Length=0.106468000,Units=km
new line.TR12243111 bus1=BMT8844754B.3,bus2=BMT8844755B.3,Phases=1,Linecode=CAB202_3_1,Length=0.059516000,Units=km
new line.TR12243112 bus1=BMT8844755B.3,bus2=BMT169521604.3,Phases=1,Linecode=CAB202_3_1,Length=0.148296000,Units=km
new line.TR12335984 bus1=BMT156107312.1,bus2=BMT156107313.1,Phases=1,Linecode=CAB103_3_1,Length=0.021474000,Units=km
new line.TR12335985 bus1=BMT156107313.1,bus2=BMT8938229B.1,Phases=1,Linecode=CAB202_3_1,Length=0.273890000,Units=km
new line.TR12335986 bus1=BMT8938229B.1,bus2=BMT8938230B.1,Phases=1,Linecode=CAB202_3_1,Length=0.102800000,Units=km
new line.TR12335987 bus1=BMT8938230B.1,bus2=BMT8938231B.1,Phases=1,Linecode=CAB202_3_1,Length=0.564870000,Units=km
new line.TR12335988 bus1=BMT8938231B.1,bus2=BMT8938233B.1,Phases=1,Linecode=CAB202_3_1,Length=0.280215000,Units=km
new line.TR12335989 bus1=BMT8938233B.1,bus2=BMT156107314.1,Phases=1,Linecode=CAB202_3_1,Length=0.189880000,Units=km
new line.TR12337396 bus1=BMT8939614B.2,bus2=BMT8939615B.2,Phases=1,Linecode=CAB202_3_1,Length=0.109612000,Units=km
new line.TR12337398 bus1=BMT8939615B.2,bus2=BMT8939617B.2,Phases=1,Linecode=CAB202_3_1,Length=0.114084000,Units=km
new line.TR12337399 bus1=BMT8939617B.2,bus2=BMT8939619B.2,Phases=1,Linecode=CAB202_3_1,Length=0.121852000,Units=km
new line.TR12337400 bus1=BMT8939619B.2,bus2=BMT8939621B.2,Phases=1,Linecode=CAB202_3_1,Length=0.094644000,Units=km
new line.TR12337401 bus1=BMT8939621B.2,bus2=BMT8939625B.2,Phases=1,Linecode=CAB202_3_1,Length=0.272538000,Units=km
new line.TR12337402 bus1=BMT8939625B.2,bus2=BMT156149469.2,Phases=1,Linecode=CAB202_3_1,Length=0.289271000,Units=km
new line.TR12337403 bus1=BMT156149469.2,bus2=BMT8939629B.2,Phases=1,Linecode=CAB103_3_1,Length=0.037344000,Units=km
new line.TR12337404 bus1=BMT8939629B.2,bus2=BMT8939630B.2,Phases=1,Linecode=CAB103_3_1,Length=0.024845000,Units=km
new line.TR12337406 bus1=BMT8939630B.2,bus2=BMT8939631B.2,Phases=1,Linecode=CAB103_3_1,Length=0.069541000,Units=km
new line.TR12337407 bus1=BMT8939631B.2,bus2=BMT8939632B.2,Phases=1,Linecode=CAB103_3_1,Length=0.070107000,Units=km
new line.TR12337408 bus1=BMT8939632B.2,bus2=BMT8939633B.2,Phases=1,Linecode=CAB103_3_1,Length=0.071295000,Units=km
new line.TR12337409 bus1=BMT8939633B.2,bus2=BMT156149470.2,Phases=1,Linecode=CAB103_3_1,Length=0.073021000,Units=km
new line.TR12337410 bus1=BMT156149470.2,bus2=BMT8939636B.2,Phases=1,Linecode=CAB202_3_1,Length=0.219154000,Units=km
new line.TR12337411 bus1=BMT8939636B.2,bus2=BMT156149471.2,Phases=1,Linecode=CAB202_3_1,Length=0.039008000,Units=km
new line.TR12337420 bus1=BMT125497082.2,bus2=BMT8939686B.2,Phases=1,Linecode=CAB202_3_1,Length=0.322459000,Units=km
new line.TR12337421 bus1=BMT8939686B.2,bus2=BMT8939614B.2,Phases=1,Linecode=CAB202_3_1,Length=0.032069000,Units=km
new line.TR12338147 bus1=BMT156534580.3,bus2=BMT156534581.3,Phases=1,Linecode=CAB202_3_1,Length=0.082692000,Units=km
new line.TR12338148 bus1=BMT156534581.3,bus2=BMT156534582.3,Phases=1,Linecode=CAB202_3_1,Length=0.081847000,Units=km
new line.TR12338156 bus1=BMT156534581.3,bus2=BMT156534583.3,Phases=1,Linecode=CAB103_3_1,Length=0.030021000,Units=km
new line.TR12338160 bus1=BMT156534583.3,bus2=BMT8940437B.3,Phases=1,Linecode=CAB202_3_1,Length=0.131080000,Units=km
new line.TR12338163 bus1=BMT8940437B.3,bus2=BMT156534584.3,Phases=1,Linecode=CAB202_3_1,Length=0.073018000,Units=km
new line.TR12344411 bus1=BMT747836B.1.2.3,bus2=BMT8947275B.1.2.3,Phases=3,Linecode=CABA08_3_3,Length=0.013344000,Units=km
new line.TR12344412 bus1=BMT8947275B.1.2.3,bus2=BMT747829B.1.2.3,Phases=3,Linecode=CABA08_3_3,Length=0.009002000,Units=km
new line.TR12417408 bus1=BMT735775B.1,bus2=BMT9023399B.1,Phases=1,Linecode=CAB102_3_1,Length=0.024742000,Units=km
new line.TR12346673 bus1=BMT8949976B.1.2.3,bus2=BMT8949975B.1.2.3,Phases=3,Linecode=CABA06_3_3,Length=0.039629000,Units=km
new line.TR12346674 bus1=BMT8949975B.1.2.3,bus2=BMT8949974B.1.2.3,Phases=3,Linecode=CABA06_3_3,Length=0.039210000,Units=km
new line.TR12346675 bus1=BMT8949974B.1.2.3,bus2=BMT156489117.1.2.3,Phases=3,Linecode=CABA06_3_3,Length=0.045006000,Units=km
new line.TR12346676 bus1=BMT156489117.1.2.3,bus2=BMT8949977B.1.2.3,Phases=3,Linecode=CABA06_3_3,Length=0.046407000,Units=km
new line.TR12346677 bus1=BMT8949977B.1.2.3,bus2=BMT8949979B.1.2.3,Phases=3,Linecode=CABA06_3_3,Length=0.029415000,Units=km
new line.TR12346678 bus1=BMT8949979B.1.2.3,bus2=BMT8949989B.1.2.3,Phases=3,Linecode=CABA06_3_3,Length=0.017032000,Units=km
new line.TR12346684 bus1=BMT8949989B.1.2.3,bus2=BMT8949992B.1.2.3,Phases=3,Linecode=CABA06_3_3,Length=0.026405000,Units=km
new line.TR12346685 bus1=BMT8949992B.1.2.3,bus2=BMT8949994B.1.2.3,Phases=3,Linecode=CABA06_3_3,Length=0.041779000,Units=km
new line.TR12346686 bus1=BMT8949994B.1.2.3,bus2=BMT8949997B.1.2.3,Phases=3,Linecode=CABA06_3_3,Length=0.041115000,Units=km
new line.TR12346687 bus1=BMT8949997B.1.2.3,bus2=BMT8950004B.1.2.3,Phases=3,Linecode=CABA06_3_3,Length=0.041115000,Units=km
new line.TR12346688 bus1=BMT8950004B.1.2.3,bus2=BMT156489119.1.2.3,Phases=3,Linecode=CABA06_3_3,Length=0.039464000,Units=km
new line.TR12346689 bus1=BMT156489119.1.2.3,bus2=BMT8949925B.1.2.3,Phases=3,Linecode=CABA06_3_3,Length=0.030810000,Units=km
new line.TR12346690 bus1=BMT8949925B.1.2.3,bus2=BMT8949929B.1.2.3,Phases=3,Linecode=CABA06_3_3,Length=0.019419000,Units=km
new line.TR12346695 bus1=BMT156489119.1.2.3,bus2=BMT156489122.1.2.3,Phases=3,Linecode=CABA06_3_3,Length=0.040030000,Units=km
new line.TR12346698 bus1=BMT8949929B.1.2.3,bus2=BMT8949933B.1.2.3,Phases=3,Linecode=CABA06_3_3,Length=0.013344000,Units=km
new line.TR12346699 bus1=BMT8949933B.1.2.3,bus2=BMT156489121.1.2.3,Phases=3,Linecode=CABA06_3_3,Length=0.039057000,Units=km
new line.TR12346704 bus1=BMT8949929B.1.2.3,bus2=BMT8949923B.1.2.3,Phases=3,Linecode=CABA06_3_3,Length=0.013344000,Units=km
new line.TR12346705 bus1=BMT8949929B.1.2.3,bus2=BMT8950005B.1.2.3,Phases=3,Linecode=CABA06_3_3,Length=0.021381000,Units=km
new line.TR12346707 bus1=BMT156489117.1.2.3,bus2=BMT156489120.1.2.3,Phases=3,Linecode=CABA06_3_3,Length=0.034137000,Units=km
new line.TR12346714 bus1=BMT156489116.1.2.3,bus2=BMT8949903B.1.2.3,Phases=3,Linecode=CABA06_3_3,Length=0.006326000,Units=km
new line.TR12346715 bus1=BMT8949903B.1.2.3,bus2=BMT8949904B.1.2.3,Phases=3,Linecode=CABA06_3_3,Length=0.044727000,Units=km
new line.TR12346716 bus1=BMT8949904B.1.2.3,bus2=BMT8949905B.1.2.3,Phases=3,Linecode=CABA06_3_3,Length=0.037207000,Units=km
new line.TR12346717 bus1=BMT8949905B.1.2.3,bus2=BMT8949906B.1.2.3,Phases=3,Linecode=CABA06_3_3,Length=0.039666000,Units=km
new line.TR12346718 bus1=BMT8949906B.1.2.3,bus2=BMT8949908B.1.2.3,Phases=3,Linecode=CABA06_3_3,Length=0.034718000,Units=km
new line.TR12346719 bus1=BMT8949908B.1.2.3,bus2=BMT8949909B.1.2.3,Phases=3,Linecode=CABA06_3_3,Length=0.030467000,Units=km
new line.TR12346720 bus1=BMT8949909B.1.2.3,bus2=BMT156489118.1.2.3,Phases=3,Linecode=CABA06_3_3,Length=0.029703000,Units=km
new line.TR12346798 bus1=BMT171289264.1.2.3,bus2=BMT8950137B.1.2.3,Phases=3,Linecode=CAB104_3_3,Length=0.035782000,Units=km
new line.TR12346799 bus1=BMT8950137B.1.2.3,bus2=BMT171289265.1.2.3,Phases=3,Linecode=CAB104_3_3,Length=0.028640000,Units=km
new line.TR12430241 bus1=BMT159336190.2,bus2=BMT159336194.2,Phases=1,Linecode=CAB103_3_1,Length=0.010001000,Units=km
new line.TR12430246 bus1=BMT159336194.2,bus2=BMT9036268B.2,Phases=1,Linecode=CAB202_3_1,Length=0.098031000,Units=km
new line.TR12430267 bus1=BMT9036268B.2,bus2=BMT9036285B.2,Phases=1,Linecode=CAB202_3_1,Length=0.164823000,Units=km
new line.TR12430271 bus1=BMT9036285B.2,bus2=BMT159336196.2,Phases=1,Linecode=CAB202_3_1,Length=0.090265000,Units=km
new line.TR12430273 bus1=BMT159336196.2,bus2=BMT159336198.2,Phases=1,Linecode=CAB103_3_1,Length=0.046103000,Units=km
...
