2024_89_CemigReconfigurationCases/1_AlimsCemig/SND04/SND04ChavesMT.dss
new line.CTR104809 bus1=BMT125487457.3,bus2=BMT125487555.3,Phases=1,LineCode=tieSwitch1,Length=0.001,Units=km,switch=T !numEQ 121884
new line.CTR10498 bus1=BMT125491559.2,bus2=BMT125491608.2,Phases=1,LineCode=tieSwitch1,Length=0.001,Units=km,switch=T !numEQ 122325
new line.CTR10505 bus1=BMT125487961.3,bus2=BMT125493113.3,Phases=1,LineCode=tieSwitch1,Length=0.001,Units=km,switch=T !numEQ 122326
new line.CTR105649 bus1=BMT125501345.1.2.3,bus2=BMT169666597.1.2.3,Phases=3,LineCode=tieSwitch,Length=0.001,Units=km,switch=T !numEQ 98727
new line.CTR117717 bus1=BMT125486883.1.2.3,bus2=BMT163461089.1.2.3,Phases=3,LineCode=tieSwitch,Length=0.001,Units=km,switch=T !numEQ 125219
new line.CTR117871 bus1=BMT125485826.1.2.3,bus2=BMT127146233.1.2.3,Phases=3,LineCode=tieSwitch,Length=0.001,Units=km,switch=T !numEQ 22240
new line.CTR130457 bus1=BMT125511796.3,bus2=BMT156830830.3,Phases=1,LineCode=tieSwitch1,Length=0.001,Units=km,switch=T !numEQ 134162
new line.CTR130471 bus1=BMT125493792.1.2.3,bus2=BMT125493806.1.2.3,Phases=3,LineCode=tieSwitch,Length=0.001,Units=km,switch=T !numEQ 25992
new line.CTR130485 bus1=BMT125496697.2,bus2=BMT125496739.2,Phases=1,LineCode=tieSwitch1,Length=0.001,Units=km,switch=T !numEQ 130346
new line.CTR130513 bus1=BMT149318671.1.2.3,bus2=BMT149318673.1.2.3,Phases=3,LineCode=tieSwitch,Length=0.001,Units=km,switch=T !numEQ 22269
new line.CTR130562 bus1=BMT125489305.3,bus2=BMT125489319.3,Phases=1,LineCode=tieSwitch1,Length=0.001,Units=km,switch=T !numEQ 130763
new line.CTR130590 bus1=BMT125485539.1.2.3,bus2=BMT125485546.1.2.3,Phases=3,LineCode=tieSwitch,Length=0.001,Units=km,switch=T !numEQ 22203
new line.CTR130653 bus1=BMT125481717.2,bus2=BMT138385027.2,Phases=1,LineCode=tieSwitch1,Length=0.001,Units=km,switch=T !numEQ 134965
new line.CTR130793 bus1=BMT125482270.1.2.3,bus2=BMT149180767.1.2.3,Phases=3,LineCode=tieSwitch,Length=0.001,Units=km,switch=T !numEQ 22217
new line.CTR130800 bus1=BMT125482473.1.2.3,bus2=BMT149894477.1.2.3,Phases=3,LineCode=tieSwitch,Length=0.001,Units=km,switch=T !numEQ 22222
new line.CTR130807 bus1=BMT125482172.1.2.3,bus2=BMT125482466.1.2.3,Phases=3,LineCode=tieSwitch,Length=0.001,Units=km,switch=T !numEQ 22221
new line.CTR130849 bus1=BMT173203014.1.2.3,bus2=BMT173203131.1.2.3,Phases=3,LineCode=tieSwitch,Length=0.001,Units=km,switch=T !numEQ 22188
open line.CTR130849 term=1
new line.CTR130856 bus1=BMT125499000.1,bus2=BMT148069386.1,Phases=1,LineCode=tieSwitch1,Length=0.001,Units=km,switch=T !numEQ 22256
new line.CTR130863 bus1=BMT125499014.1,bus2=BMT167202603.1,Phases=1,LineCode=tieSwitch1,Length=0.001,Units=km,switch=T !numEQ 23335
new line.CTR130870 bus1=BMT163386294.1.2.3,bus2=BMT2272891.1.2.3,Phases=3,LineCode=tieSwitch,Length=0.001,Units=km,switch=T !numEQ 23252
open line.CTR130870 term=1
new line.CTR130884 bus1=BMT125511803.1.2.3,bus2=BMT157211322.1.2.3,Phases=3,LineCode=tieSwitch,Length=0.001,Units=km,switch=T !numEQ 22418
new line.CTR130919 bus1=BMT163385607.1.2.3,bus2=BMT2272905.1.2.3,Phases=3,LineCode=tieSwitch,Length=0.001,Units=km,switch=T !numEQ 23253
open line.CTR130919 term=1
new line.CTR130926 bus1=BMT125477916.1.2.3,bus2=BMT2272912.1.2.3,Phases=3,LineCode=tieSwitch,Length=0.001,Units=km,switch=T !numEQ 93647
open line.CTR130926 term=1
new line.CTR130933 bus1=BMT125481864.1.2.3,bus2=BMT163385605.1.2.3,Phases=3,LineCode=tieSwitch,Length=0.001,Units=km,switch=T !numEQ 23250
new line.CTR130940 bus1=BMT152564569.1.2.3,bus2=BMT2272954.1.2.3,Phases=3,LineCode=tieSwitch,Length=0.001,Units=km,switch=T !numEQ 93648
open line.CTR130940 term=1
new line.CTR131003 bus1=BMT125464392.1.2.3,bus2=BMT125469922.1.2.3,Phases=3,LineCode=tieSwitch,Length=0.001,Units=km,switch=T !numEQ 23043
new line.CTR131178 bus1=BMT125495101.3,bus2=BMT161375705.3,Phases=1,LineCode=tieSwitch1,Length=0.001,Units=km,switch=T !numEQ 121879
new line.CTR131444 bus1=BMT125479246.2,bus2=BMT125480366.2,Phases=1,LineCode=tieSwitch1,Length=0.001,Units=km,switch=T !numEQ 152796
new line.CTR131577 bus1=BMT125503690.3,bus2=BMT125504467.3,Phases=1,LineCode=tieSwitch1,Length=0.001,Units=km,switch=T !numEQ 152189
new line.CTR145129 bus1=BMT125464623.1.2.3,bus2=BMT150624421.1.2.3,Phases=3,LineCode=tieSwitch,Length=0.001,Units=km,switch=T !numEQ 213305
new line.CTR157568 bus1=BMT125480968.2,bus2=BMT157776436.2,Phases=1,LineCode=tieSwitch1,Length=0.001,Units=km,switch=T !numEQ 138254
new line.CTR157610 bus1=BMT125510263.3,bus2=BMT125510431.3,Phases=1,LineCode=tieSwitch1,Length=0.001,Units=km,switch=T !numEQ 119554
new line.CTR157617 bus1=BMT125508954.3,bus2=BMT125510935.3,Phases=1,LineCode=tieSwitch1,Length=0.001,Units=km,switch=T !numEQ 119551
new line.CTR15762 bus1=BMT125503984.3,bus2=BMT125504054.3,Phases=1,LineCode=tieSwitch1,Length=0.001,Units=km,switch=T !numEQ 130739
new line.CTR157624 bus1=BMT125508968.3,bus2=BMT125510473.3,Phases=1,LineCode=tieSwitch1,Length=0.001,Units=km,switch=T !numEQ 119553
new line.CTR157631 bus1=BMT125510494.3,bus2=BMT125510921.3,Phases=1,LineCode=tieSwitch1,Length=0.001,Units=km,switch=T !numEQ 119552
new line.CTR157645 bus1=BMT125510998.3,bus2=BMT125511047.3,Phases=1,LineCode=tieSwitch1,Length=0.001,Units=km,switch=T !numEQ 119549
new line.CTR157652 bus1=BMT125510977.3,bus2=BMT125511096.3,Phases=1,LineCode=tieSwitch1,Length=0.001,Units=km,switch=T !numEQ 119548
new line.CTR157659 bus1=BMT125511292.1,bus2=BMT125511341.1,Phases=1,LineCode=tieSwitch1,Length=0.001,Units=km,switch=T !numEQ 119546
new line.CTR157666 bus1=BMT125511299.1,bus2=BMT125511327.1,Phases=1,LineCode=tieSwitch1,Length=0.001,Units=km,switch=T !numEQ 119547
new line.CTR157673 bus1=BMT125499763.3,bus2=BMT125511355.3,Phases=1,LineCode=tieSwitch1,Length=0.001,Units=km,switch=T !numEQ 119545
new line.CTR157680 bus1=BMT125499679.1,bus2=BMT125511495.1,Phases=1,LineCode=tieSwitch1,Length=0.001,Units=km,switch=T !numEQ 119543
new line.CTR157687 bus1=BMT125511502.1,bus2=BMT125511516.1,Phases=1,LineCode=tieSwitch1,Length=0.001,Units=km,switch=T !numEQ 119542
new line.CTR157708 bus1=BMT125506693.2,bus2=BMT162793190.2,Phases=1,LineCode=tieSwitch1,Length=0.001,Units=km,switch=T !numEQ 98654
new line.CTR15783 bus1=BMT125502024.1.2.3,bus2=BMT125503242.1.2.3,Phases=3,LineCode=tieSwitch,Length=0.001,Units=km,switch=T !numEQ 130736
new line.CTR157834 bus1=BMT125499966.3,bus2=BMT125508786.3,Phases=1,LineCode=tieSwitch1,Length=0.001,Units=km,switch=T !numEQ 119561
new line.CTR15790 bus1=BMT125503361.2,bus2=BMT125503375.2,Phases=1,LineCode=tieSwitch1,Length=0.001,Units=km,switch=T !numEQ 130731
new line.CTR157918 bus1=BMT125480940.2,bus2=BMT125481073.2,Phases=1,LineCode=tieSwitch1,Length=0.001,Units=km,switch=T !numEQ 119585
new line.CTR158653 bus1=BMT125488941.3,bus2=BMT125488948.3,Phases=1,LineCode=tieSwitch1,Length=0.001,Units=km,switch=T !numEQ 22797
new line.CTR10225 bus1=BMT125494877.3,bus2=BMT125495682.3,Phases=1,LineCode=tieSwitch1,Length=0.001,Units=km,switch=T !numEQ 121887
new line.CTR102261 bus1=BMT125489893.2,bus2=BMT125491034.2,Phases=1,LineCode=tieSwitch1,Length=0.001,Units=km,switch=T !numEQ 125175
new line.CTR102751 bus1=BMT125510648.3,bus2=BMT125510774.3,Phases=1,LineCode=tieSwitch1,Length=0.001,Units=km,switch=T !numEQ 118944
new line.CTR114581 bus1=BMT125504740.1.2.3,bus2=BMT125504747.1.2.3,Phases=3,LineCode=tieSwitch,Length=0.001,Units=km,switch=T !numEQ 133628
new line.CTR11464 bus1=BMT125490089.2,bus2=BMT125490915.2,Phases=1,LineCode=tieSwitch1,Length=0.001,Units=km,switch=T !numEQ 125179
new line.CTR11471 bus1=BMT125490943.2,bus2=BMT125490985.2,Phases=1,LineCode=tieSwitch1,Length=0.001,Units=km,switch=T !numEQ 125133
new line.CTR11520 bus1=BMT125490180.2,bus2=BMT125490397.2,Phases=1,LineCode=tieSwitch1,Length=0.001,Units=km,switch=T !numEQ 125138
new line.CTR11534 bus1=BMT125490509.2,bus2=BMT125490817.2,Phases=1,LineCode=tieSwitch1,Length=0.001,Units=km,switch=T !numEQ 125140
new line.CTR11548 bus1=BMT125490565.2,bus2=BMT125490775.2,Phases=1,LineCode=tieSwitch1,Length=0.001,Units=km,switch=T !numEQ 125141
new line.CTR11555 bus1=BMT125490649.2,bus2=BMT125490656.2,Phases=1,LineCode=tieSwitch1,Length=0.001,Units=km,switch=T !numEQ 125143
new line.CTR115589 bus1=BMT125503837.3,bus2=BMT125504187.3,Phases=1,LineCode=tieSwitch1,Length=0.001,Units=km,switch=T !numEQ 130733
new line.CTR127167 bus1=BMT125495444.3,bus2=BMT172055027.3,Phases=1,LineCode=tieSwitch1,Length=0.001,Units=km,switch=T !numEQ 121874
new line.CTR127958 bus1=BMT125509367.2,bus2=BMT125509395.2,Phases=1,LineCode=tieSwitch1,Length=0.001,Units=km,switch=T !numEQ 119559
new line.CTR128175 bus1=BMT173201490.2,bus2=BMT173201505.2,Phases=1,LineCode=tieSwitch1,Length=0.001,Units=km,switch=T !numEQ 22193
new line.CTR128308 bus1=BMT151498658.1,bus2=BMT151498662.1,Phases=1,LineCode=tieSwitch1,Length=0.001,Units=km,switch=T !numEQ 22980
new line.CTR138500 bus1=BMT149066863.1.2.3,bus2=BMT149066876.1.2.3,Phases=3,LineCode=tieSwitch,Length=0.001,Units=km,switch=T !numEQ 154301
new line.CTR138675 bus1=BMT125486785.3,bus2=BMT159916334.3,Phases=1,LineCode=tieSwitch1,Length=0.001,Units=km,switch=T !numEQ 120709
new line.CTR138766 bus1=BMT125509822.1,bus2=BMT154429736.1,Phases=1,LineCode=tieSwitch1,Length=0.001,Units=km,switch=T !numEQ 152762
new line.CTR138899 bus1=BMT125490103.2,bus2=BMT125490845.2,Phases=1,LineCode=tieSwitch1,Length=0.001,Units=km,switch=T !numEQ 125135
new line.CTR139088 bus1=BMT125494989.3,bus2=BMT125495087.3,Phases=1,LineCode=tieSwitch1,Length=0.001,Units=km,switch=T !numEQ 121878
new line.CTR139193 bus1=BMT125480191.2,bus2=BMT125480205.2,Phases=1,LineCode=tieSwitch1,Length=0.001,Units=km,switch=T !numEQ 144285
new line.CTR139536 bus1=BMT125509836.1,bus2=BMT125509878.1,Phases=1,LineCode=tieSwitch1,Length=0.001,Units=km,switch=T !numEQ 98809
new line.CTR139935 bus1=BMT138940274.2,bus2=BMT138940281.2,Phases=1,LineCode=tieSwitch1,Length=0.001,Units=km,switch=T !numEQ 23698
new line.CTR140187 bus1=BMT155134757.1,bus2=BMT125509549.1,Phases=1,LineCode=tieSwitch1,Length=0.001,Units=km,switch=T !numEQ 22767
new line.CTR14026 bus1=BMT125508254.3,bus2=BMT125508268.3,Phases=1,LineCode=tieSwitch1,Length=0.001,Units=km,switch=T !numEQ 144475
new line.CTR140299 bus1=BMT125508205.3,bus2=BMT125508359.3,Phases=1,LineCode=tieSwitch1,Length=0.001,Units=km,switch=T !numEQ 124776
new line.CTR152290 bus1=BMT125495850.1,bus2=BMT125498398.1,Phases=1,LineCode=tieSwitch1,Length=0.001,Units=km,switch=T !numEQ 155118
new line.CTR152689 bus1=BMT125493932.1,bus2=BMT125493946.1,Phases=1,LineCode=tieSwitch1,Length=0.001,Units=km,switch=T !numEQ 134688
new line.CTR153179 bus1=BMT125489879.2,bus2=BMT125490019.2,Phases=1,LineCode=tieSwitch1,Length=0.001,Units=km,switch=T !numEQ 125134
new line.CTR158898 bus1=BMT125478938.1.2.3,bus2=BMT159111031.1.2.3,Phases=3,LineCode=tieSwitch,Length=0.001,Units=km,switch=T !numEQ 22307
new line.CTR158933 bus1=BMT125486225.1.2.3,bus2=BMT125486253.1.2.3,Phases=3,LineCode=tieSwitch,Length=0.001,Units=km,switch=T !numEQ 22242
new line.CTR158940 bus1=BMT172771294.1.2.3,bus2=BMT125486085.1.2.3,Phases=3,LineCode=tieSwitch,Length=0.001,Units=km,switch=T !numEQ 22251
new line.CTR158954 bus1=BMT125485266.1.2.3,bus2=BMT156819259.1.2.3,Phases=3,LineCode=tieSwitch,Length=0.001,Units=km,switch=T !numEQ 23258
new line.CTR158961 bus1=BMT125479036.1.2.3,bus2=BMT173201652.1.2.3,Phases=3,LineCode=tieSwitch,Length=0.001,Units=km,switch=T !numEQ 22311
new line.CTR158968 bus1=BMT125491167.2,bus2=BMT125491209.2,Phases=1,LineCode=tieSwitch1,Length=0.001,Units=km,switch=T !numEQ 130769
new line.CTR158975 bus1=BMT125491993.2,bus2=BMT125492007.2,Phases=1,LineCode=tieSwitch1,Length=0.001,Units=km,switch=T !numEQ 130770
new line.CTR158989 bus1=BMT125484566.1.2.3,bus2=BMT172992492.1.2.3,Phases=3,LineCode=tieSwitch,Length=0.001,Units=km,switch=T !numEQ 22373
new line.CTR159304 bus1=BMT125506301.2,bus2=BMT125507211.2,Phases=1,LineCode=tieSwitch1,Length=0.001,Units=km,switch=T !numEQ 131224
new line.CTR159605 bus1=BMT125493953.1,bus2=BMT125493967.1,Phases=1,LineCode=tieSwitch1,Length=0.001,Units=km,switch=T !numEQ 134689
new line.CTR159990 bus1=BMT125500561.3,bus2=BMT125508156.3,Phases=1,LineCode=tieSwitch1,Length=0.001,Units=km,switch=T !numEQ 118941
new line.CTR159997 bus1=BMT125500617.3,bus2=BMT125508065.3,Phases=1,LineCode=tieSwitch1,Length=0.001,Units=km,switch=T !numEQ 118939
new line.CTR160004 bus1=BMT125500666.3,bus2=BMT125507981.3,Phases=1,LineCode=tieSwitch1,Length=0.001,Units=km,switch=T !numEQ 118937
new line.CTR160011 bus1=BMT125500659.1,bus2=BMT157956862.1,Phases=1,LineCode=tieSwitch1,Length=0.001,Units=km,switch=T !numEQ 118938
new line.CTR160025 bus1=BMT125497810.1,bus2=BMT155138467.1,Phases=1,LineCode=tieSwitch1,Length=0.001,Units=km,switch=T !numEQ 118930
new line.CTR160032 bus1=BMT125497642.1,bus2=BMT125497803.1,Phases=1,LineCode=tieSwitch1,Length=0.001,Units=km,switch=T !numEQ 59972
new line.CTR160060 bus1=BMT125499987.1,bus2=BMT125508772.1,Phases=1,LineCode=tieSwitch1,Length=0.001,Units=km,switch=T !numEQ 119562
new line.CTR160067 bus1=BMT125499973.1,bus2=BMT125508800.1,Phases=1,LineCode=tieSwitch1,Length=0.001,Units=km,switch=T !numEQ 119565
new line.CTR160074 bus1=BMT125508807.1,bus2=BMT125508842.1,Phases=1,LineCode=tieSwitch1,Length=0.001,Units=km,switch=T !numEQ 119564
new line.CTR160081 bus1=BMT125508443.2,bus2=BMT125508492.2,Phases=1,LineCode=tieSwitch1,Length=0.001,Units=km,switch=T !numEQ 119581
new line.CTR106601 bus1=BMT125478245.1.2.3,bus2=BMT125478252.1.2.3,Phases=3,LineCode=tieSwitch,Length=0.001,Units=km,switch=T !numEQ 22280
new line.CTR106867 bus1=BMT125482025.1.2.3,bus2=BMT157042150.1.2.3,Phases=3,LineCode=tieSwitch,Length=0.001,Units=km,switch=T !numEQ 22272
new line.CTR10694 bus1=BMT125489235.3,bus2=BMT125489270.3,Phases=1,LineCode=tieSwitch1,Length=0.001,Units=km,switch=T !numEQ 128849
new line.CTR107588 bus1=BMT125501100.1.2.3,bus2=BMT154700286.1.2.3,Phases=3,LineCode=tieSwitch,Length=0.001,Units=km,switch=T !numEQ 154446
new line.CTR107756 bus1=BMT172670410.1.2.3,bus2=BMT149044008.1.2.3,Phases=3,LineCode=tieSwitch,Length=0.001,Units=km,switch=T !numEQ 22220
open line.CTR107756 term=1
new line.CTR10799 bus1=BMT125477566.1,bus2=BMT161820014.1,Phases=1,LineCode=tieSwitch1,Length=0.001,Units=km,switch=T !numEQ 122350
new line.CTR11869976 bus1=BMT2011869977.1.2.3,bus2=BMT2204171116.1.2.3,Phases=3,LineCode=tieSwitch,Length=0.001,Units=km,switch=T !numEQ 
new line.CTR11869990 bus1=BMT2204171115.1.2.3,bus2=BMT2011869991.1.2.3,Phases=3,LineCode=tieSwitch,Length=0.001,Units=km,switch=T !numEQ 
new line.CTR11870004 bus1=BMT2204171114.1.2.3,bus2=BMT2506113751.1.2.3,Phases=3,LineCode=tieSwitch,Length=0.001,Units=km,switch=T !numEQ 
new line.CTR11870018 bus1=BMT2204171113.1.2.3,bus2=BMT2506113741.1.2.3,Phases=3,LineCode=tieSwitch,Length=0.001,Units=km,switch=T !numEQ 
new line.CTR11870032 bus1=BMT2506113731.1.2.3,bus2=BMT2204171112.1.2.3,Phases=3,LineCode=tieSwitch,Length=0.001,Units=km,switch=T !numEQ 
new line.CTR11870131 bus1=BMT2204171116.1.2.3,bus2=BMT2011868915.1.2.3,Phases=3,LineCode=tieSwitch,Length=0.001,Units=km,switch=T !numEQ 
new line.CTR11870143 bus1=BMT2011868915.1.2.3,bus2=BMT2204171115.1.2.3,Phases=3,LineCode=tieSwitch,Length=0.001,Units=km,switch=T !numEQ 
new line.CTR11870155 bus1=BMT2011868915.1.2.3,bus2=BMT2204171114.1.2.3,Phases=3,LineCode=tieSwitch,Length=0.001,Units=km,switch=T !numEQ 
new line.CTR11870167 bus1=BMT2011868915.1.2.3,bus2=BMT2204171113.1.2.3,Phases=3,LineCode=tieSwitch,Length=0.001,Units=km,switch=T !numEQ 
new line.CTR11870179 bus1=BMT2204171112.1.2.3,bus2=BMT2011868915.1.2.3,Phases=3,LineCode=tieSwitch,Length=0.001,Units=km,switch=T !numEQ 
new line.CTR119761 bus1=BMT125496592.2,bus2=BMT125497243.2,Phases=1,LineCode=tieSwitch1,Length=0.001,Units=km,switch=T !numEQ 110076
new line.CTR132018 bus1=BMT125500260.1,bus2=BMT160801450.1,Phases=1,LineCode=tieSwitch1,Length=0.001,Units=km,switch=T !numEQ 140740
new line.CTR132032 bus1=BMT125487919.3,bus2=BMT125493701.3,Phases=1,LineCode=tieSwitch1,Length=0.001,Units=km,switch=T !numEQ 151898
new line.CTR133019 bus1=BMT125494653.1.2.3,bus2=BMT125494765.1.2.3,Phases=3,LineCode=tieSwitch,Length=0.001,Units=km,switch=T !numEQ 152455
new line.CTR14586 bus1=BMT125505524.2,bus2=BMT154545892.2,Phases=1,LineCode=tieSwitch1,Length=0.001,Units=km,switch=T !numEQ 152199
new line.CTR146676 bus1=BMT125480562.2,bus2=BMT125480646.2,Phases=1,LineCode=tieSwitch1,Length=0.001,Units=km,switch=T !numEQ 119570
new line.CTR162979 bus1=BMT125496606.2,bus2=BMT150102840.2,Phases=1,LineCode=tieSwitch1,Length=0.001,Units=km,switch=T !numEQ 121870
new line.CTR163000 bus1=BMT151421277.1.2.3,bus2=BMT161912636.1.2.3,Phases=3,LineCode=tieSwitch,Length=0.001,Units=km,switch=T !numEQ 121883
new line.CTR163182 bus1=BMT125494177.3,bus2=BMT125494191.3,Phases=1,LineCode=tieSwitch1,Length=0.001,Units=km,switch=T !numEQ 122337
new line.CTR163308 bus1=BMT125504355.3,bus2=BMT125504376.3,Phases=1,LineCode=tieSwitch1,Length=0.001,Units=km,switch=T !numEQ 130737
new line.CTR163791 bus1=BMT125488738.1,bus2=BMT125492077.1,Phases=1,LineCode=tieSwitch1,Length=0.001,Units=km,switch=T !numEQ 122387
new line.CTR163903 bus1=BMT125488003.1,bus2=BMT166974034.1,Phases=1,LineCode=tieSwitch1,Length=0.001,Units=km,switch=T !numEQ 23316
new line.CTR174326 bus1=BMT125483313.3,bus2=BMT125483334.3,Phases=1,LineCode=tieSwitch1,Length=0.001,Units=km,switch=T !numEQ 141011
new line.CTR174333 bus1=BMT125501170.1,bus2=BMT125506077.1,Phases=1,LineCode=tieSwitch1,Length=0.001,Units=km,switch=T !numEQ 152264
new line.CTR174774 bus1=BMT125488514.3,bus2=BMT125492336.3,Phases=1,LineCode=tieSwitch1,Length=0.001,Units=km,switch=T !numEQ 22794
new line.CTR174781 bus1=BMT125492343.3,bus2=BMT125492357.3,Phases=1,LineCode=tieSwitch1,Length=0.001,Units=km,switch=T !numEQ 122390
new line.CTR17484 bus1=BMT125488724.1,bus2=BMT125488906.1,Phases=1,LineCode=tieSwitch1,Length=0.001,Units=km,switch=T !numEQ 124356
new line.CTR17491 bus1=BMT125488717.3,bus2=BMT125492098.3,Phases=1,LineCode=tieSwitch1,Length=0.001,Units=km,switch=T !numEQ 130542
new line.CTR175397 bus1=BMT125490201.2,bus2=BMT125490208.2,Phases=1,LineCode=tieSwitch1,Length=0.001,Units=km,switch=T !numEQ 22770
new line.CTR175586 bus1=BMT125509752.1,bus2=BMT125510088.1,Phases=1,LineCode=tieSwitch1,Length=0.001,Units=km,switch=T !numEQ 152771
new line.CTR175600 bus1=BMT125509738.1,bus2=BMT125510109.1,Phases=1,LineCode=tieSwitch1,Length=0.001,Units=km,switch=T !numEQ 152772
new line.CTR186247 bus1=BMT125506098.1,bus2=BMT125506147.1,Phases=1,LineCode=tieSwitch1,Length=0.001,Units=km,switch=T !numEQ 201513
new line.CTR186261 bus1=BMT125506126.1.2.3,bus2=BMT125506133.1.2.3,Phases=3,LineCode=tieSwitch,Length=0.001,Units=km,switch=T !numEQ 201928
new line.CTR186380 bus1=BMT125511775.1.2.3,bus2=BMT125486729.1.2.3,Phases=3,LineCode=tieSwitch,Length=0.001,Units=km,switch=T !numEQ 22262
open line.CTR186380 term=1
new line.CTR186485 bus1=BMT158105690.1.2.3,bus2=BMT115923777.1.2.3,Phases=3,LineCode=tieSwitch,Length=0.001,Units=km,switch=T !numEQ 22190
open line.CTR186485 term=1
new line.CTR18660 bus1=BMT125501324.1.2.3,bus2=BMT125505160.1.2.3,Phases=3,LineCode=tieSwitch,Length=0.001,Units=km,switch=T !numEQ 42215
new line.CTR18744 bus1=BMT125483838.1.2.3,bus2=BMT157459035.1.2.3,Phases=3,LineCode=tieSwitch,Length=0.001,Units=km,switch=T !numEQ 22382
new line.CTR18772 bus1=BMT125505209.1.2.3,bus2=BMT125505216.1.2.3,Phases=3,LineCode=tieSwitch,Length=0.001,Units=km,switch=T !numEQ 133732
new line.CTR198835 bus1=BMT125504929.1.2.3,bus2=BMT125505132.1.2.3,Phases=3,LineCode=tieSwitch,Length=0.001,Units=km,switch=T !numEQ 229840
new line.CTR21390 bus1=BMT125500911.3,bus2=BMT125500946.3,Phases=1,LineCode=tieSwitch1,Length=0.001,Units=km,switch=T !numEQ 140997
new line.CTR23476 bus1=BMT125500099.3,bus2=BMT125508387.3,Phases=1,LineCode=tieSwitch1,Length=0.001,Units=km,switch=T !numEQ 93777
new line.CTR23581 bus1=BMT125481472.3,bus2=BMT125481528.3,Phases=1,LineCode=tieSwitch1,Length=0.001,Units=km,switch=T !numEQ 194427
new line.CTR25338 bus1=BMT160548270.1.2.3,bus2=BMT125501863.1.2.3,Phases=3,LineCode=tieSwitch,Length=0.001,Units=km,switch=T !numEQ 40465
new line.CTR25387 bus1=BMT159556072.1.2.3,bus2=BMT159554826.1.2.3,Phases=3,LineCode=tieSwitch,Length=0.001,Units=km,switch=T !numEQ 189871
new line.CTR25408 bus1=BMT125501464.2,bus2=BMT125504866.2,Phases=1,LineCode=tieSwitch1,Length=0.001,Units=km,switch=T !numEQ 40479
new line.CTR25422 bus1=BMT125505195.1.2.3,bus2=BMT163409255.1.2.3,Phases=3,LineCode=tieSwitch,Length=0.001,Units=km,switch=T !numEQ 41738
new line.CTR101015 bus1=BMT125487912.3,bus2=BMT125493687.3,Phases=1,LineCode=tieSwitch1,Length=0.001,Units=km,switch=T !numEQ 122331
new line.CTR101078 bus1=BMT125487933.1,bus2=BMT125493484.1,Phases=1,LineCode=tieSwitch1,Length=0.001,Units=km,switch=T !numEQ 122332
new line.CTR10162 bus1=BMT125487478.3,bus2=BMT125487541.3,Phases=1,LineCode=tieSwitch1,Length=0.001,Units=km,switch=T !numEQ 121885
new line.CTR126327 bus1=BMT125500218.1,bus2=BMT125500484.1,Phases=1,LineCode=tieSwitch1,Length=0.001,Units=km,switch=T !numEQ 131222
new line.CTR140439 bus1=BMT125469936.3,bus2=BMT125477307.3,Phases=1,LineCode=tieSwitch1,Length=0.001,Units=km,switch=T !numEQ 152757
new line.CTR140572 bus1=BMT125499665.3,bus2=BMT125511530.3,Phases=1,LineCode=tieSwitch1,Length=0.001,Units=km,switch=T !numEQ 152759
new line.CTR141188 bus1=BMT158295274.1,bus2=BMT158294947.1,Phases=1,LineCode=tieSwitch1,Length=0.001,Units=km,switch=T !numEQ 23404
new line.CTR141216 bus1=BMT125494569.1,bus2=BMT167180881.1,Phases=1,LineCode=tieSwitch1,Length=0.001,Units=km,switch=T !numEQ 59243
new line.CTR14145 bus1=BMT125510634.3,bus2=BMT125510844.3,Phases=1,LineCode=tieSwitch1,Length=0.001,Units=km,switch=T !numEQ 152265
new line.CTR141510 bus1=BMT125488703.1.2.3,bus2=BMT140525137.1.2.3,Phases=3,LineCode=tieSwitch,Length=0.001,Units=km,switch=T !numEQ 22796
new line.CTR141559 bus1=BMT125494625.2,bus2=BMT161139126.2,Phases=1,LineCode=tieSwitch1,Length=0.001,Units=km,switch=T !numEQ 98875
new line.CTR141566 bus1=BMT173201653.1.2.3,bus2=BMT173202553.1.2.3,Phases=3,LineCode=tieSwitch,Length=0.001,Units=km,switch=T !numEQ 22774
new line.CTR141573 bus1=BMT125495829.2,bus2=BMT125498482.2,Phases=1,LineCode=tieSwitch1,Length=0.001,Units=km,switch=T !numEQ 22778
new line.CTR141622 bus1=BMT125499784.1,bus2=BMT125511285.1,Phases=1,LineCode=tieSwitch1,Length=0.001,Units=km,switch=T !numEQ 22755
new line.CTR141650 bus1=BMT125464427.3,bus2=BMT125469866.3,Phases=1,LineCode=tieSwitch1,Length=0.001,Units=km,switch=T !numEQ 23579
new line.CTR141671 bus1=BMT125499861.1.2.3,bus2=BMT152240555.1.2.3,Phases=3,LineCode=tieSwitch,Length=0.001,Units=km,switch=T !numEQ 23476
new line.CTR141678 bus1=BMT125500141.3,bus2=BMT125508170.3,Phases=1,LineCode=tieSwitch1,Length=0.001,Units=km,switch=T !numEQ 22760
new line.CTR141706 bus1=BMT125469929.3,bus2=BMT160048461.3,Phases=1,LineCode=tieSwitch1,Length=0.001,Units=km,switch=T !numEQ 122064
new line.CTR141825 bus1=BMT125488878.3,bus2=BMT125491671.3,Phases=1,LineCode=tieSwitch1,Length=0.001,Units=km,switch=T !numEQ 152587
new line.CTR141867 bus1=BMT125488850.3,bus2=BMT125491713.3,Phases=1,LineCode=tieSwitch1,Length=0.001,Units=km,switch=T !numEQ 152588
new line.CTR141888 bus1=BMT173203132.1.2.3,bus2=BMT173203133.1.2.3,Phases=3,LineCode=tieSwitch,Length=0.001,Units=km,switch=T !numEQ 22740
open line.CTR141888 term=1
new line.CTR141895 bus1=BMT125479211.2,bus2=BMT173201489.2,Phases=1,LineCode=tieSwitch1,Length=0.001,Units=km,switch=T !numEQ 23039
new line.CTR141902 bus1=BMT125480772.2,bus2=BMT125481318.2,Phases=1,LineCode=tieSwitch1,Length=0.001,Units=km,switch=T !numEQ 23541
new line.CTR14201 bus1=BMT125501114.3,bus2=BMT125507477.3,Phases=1,LineCode=tieSwitch1,Length=0.001,Units=km,switch=T !numEQ 152261
new line.CTR156266 bus1=BMT125491419.2,bus2=BMT146828217.2,Phases=1,LineCode=tieSwitch1,Length=0.001,Units=km,switch=T !numEQ 23420
new line.CTR156273 bus1=BMT154757700.1.2.3,bus2=BMT154757720.1.2.3,Phases=3,LineCode=tieSwitch,Length=0.001,Units=km,switch=T !numEQ 23418
new line.CTR156952 bus1=BMT125499574.1.2.3,bus2=BMT125511747.1.2.3,Phases=3,LineCode=tieSwitch,Length=0.001,Units=km,switch=T !numEQ 120707
new line.CTR156994 bus1=BMT125507624.1,bus2=BMT125507953.1,Phases=1,LineCode=tieSwitch1,Length=0.001,Units=km,switch=T !numEQ 118936
new line.CTR157022 bus1=BMT125500127.1.2.3,bus2=BMT145467319.1.2.3,Phases=3,LineCode=tieSwitch,Length=0.001,Units=km,switch=T !numEQ 23364
new line.CTR157057 bus1=BMT125487940.3,bus2=BMT156985271.3,Phases=1,LineCode=tieSwitch1,Length=0.001,Units=km,switch=T !numEQ 122338
new line.CTR157085 bus1=BMT125488010.1,bus2=BMT125492777.1,Phases=1,LineCode=tieSwitch1,Length=0.001,Units=km,switch=T !numEQ 122361
new line.CTR157092 bus1=BMT125492455.1,bus2=BMT125492469.1,Phases=1,LineCode=tieSwitch1,Length=0.001,Units=km,switch=T !numEQ 122362
new line.CTR157288 bus1=BMT125486813.3,bus2=BMT125486834.3,Phases=1,LineCode=tieSwitch1,Length=0.001,Units=km,switch=T !numEQ 120708
new line.CTR157295 bus1=BMT125486736.3,bus2=BMT140264982.3,Phases=1,LineCode=tieSwitch1,Length=0.001,Units=km,switch=T !numEQ 120710
new line.CTR157316 bus1=BMT172366720.1.2.3,bus2=BMT172366738.1.2.3,Phases=3,LineCode=tieSwitch,Length=0.001,Units=km,switch=T !numEQ 120705
new line.CTR164498 bus1=BMT125487345.2,bus2=BMT170129382.2,Phases=1,LineCode=tieSwitch1,Length=0.001,Units=km,switch=T !numEQ 130350
new line.CTR164715 bus1=BMT125490152.2,bus2=BMT125490453.2,Phases=1,LineCode=tieSwitch1,Length=0.001,Units=km,switch=T !numEQ 125136
new line.CTR179303 bus1=BMT125478168.1.2.3,bus2=BMT125481829.1.2.3,Phases=3,LineCode=tieSwitch,Length=0.001,Units=km,switch=T !numEQ 153627
new line.CTR179394 bus1=BMT125509311.2,bus2=BMT125509325.2,Phases=1,LineCode=tieSwitch1,Length=0.001,Units=km,switch=T !numEQ 152349
new line.CTR179464 bus1=BMT125489151.3,bus2=BMT125489165.3,Phases=1,LineCode=tieSwitch1,Length=0.001,Units=km,switch=T !numEQ 155218
new line.CTR179478 bus1=BMT125489200.3,bus2=BMT125489375.3,Phases=1,LineCode=tieSwitch1,Length=0.001,Units=km,switch=T !numEQ 23709
new line.CTR180150 bus1=BMT125507708.1,bus2=BMT125507715.1,Phases=1,LineCode=tieSwitch1,Length=0.001,Units=km,switch=T !numEQ 154096
new line.CTR180290 bus1=BMT125499868.1.2.3,bus2=BMT165991029.1.2.3,Phases=3,LineCode=tieSwitch,Length=0.001,Units=km,switch=T !numEQ 22758
new line.CTR180297 bus1=BMT125499903.1,bus2=BMT125508884.1,Phases=1,LineCode=tieSwitch1,Length=0.001,Units=km,switch=T !numEQ 119560
new line.CTR180542 bus1=BMT125500155.1.2.3,bus2=BMT125500512.1.2.3,Phases=3,LineCode=tieSwitch,Length=0.001,Units=km,switch=T !numEQ 154449
new line.CTR180864 bus1=BMT125503452.2,bus2=BMT125503473.2,Phases=1,LineCode=tieSwitch1,Length=0.001,Units=km,switch=T !numEQ 147354
new line.CTR180927 bus1=BMT125503529.3,bus2=BMT125504509.3,Phases=1,LineCode=tieSwitch1,Length=0.001,Units=km,switch=T !numEQ 147352
new line.CTR26346 bus1=BMT125477510.1,bus2=BMT166042984.1,Phases=1,LineCode=tieSwitch1,Length=0.001,Units=km,switch=T !numEQ 23405
new line.CTR28936 bus1=BMT125499994.3,bus2=BMT125508730.3,Phases=1,LineCode=tieSwitch1,Length=0.001,Units=km,switch=T !numEQ 101005
new line.CTR10911 bus1=BMT125487898.1,bus2=BMT125493715.1,Phases=1,LineCode=tieSwitch1,Length=0.001,Units=km,switch=T !numEQ 122334
new line.CTR10939 bus1=BMT125492609.3,bus2=BMT125492623.3,Phases=1,LineCode=tieSwitch1,Length=0.001,Units=km,switch=T !numEQ 122355
new line.CTR10946 bus1=BMT125492567.3,bus2=BMT125492595.3,Phases=1,LineCode=tieSwitch1,Length=0.001,Units=km,switch=T !numEQ 122356
new line.CTR10953 bus1=BMT125492574.3,bus2=BMT125492581.3,Phases=1,LineCode=tieSwitch1,Length=0.001,Units=km,switch=T !numEQ 122357
new line.CTR10967 bus1=BMT125492546.3,bus2=BMT125492714.3,Phases=1,LineCode=tieSwitch1,Length=0.001,Units=km,switch=T !numEQ 122359
new line.CTR121679 bus1=BMT163881735.1.2.3,bus2=BMT125482732.1.2.3,Phases=3,LineCode=tieSwitch,Length=0.001,Units=km,switch=T !numEQ 22316
open line.CTR121679 term=1
new line.CTR133761 bus1=BMT125490327.2,bus2=BMT125490334.2,Phases=1,LineCode=tieSwitch1,Length=0.001,Units=km,switch=T !numEQ 201916
new line.CTR134020 bus1=BMT125487268.1.2.3,bus2=BMT125487303.1.2.3,Phases=3,LineCode=tieSwitch,Length=0.001,Units=km,switch=T !numEQ 22392
new line.CTR13431 bus1=BMT125483586.1.2.3,bus2=BMT125483600.1.2.3,Phases=3,LineCode=tieSwitch,Length=0.001,Units=km,switch=T !numEQ 128851
new line.CTR134426 bus1=BMT125486596.1.2.3,bus2=BMT170937572.1.2.3,Phases=3,LineCode=tieSwitch,Length=0.001,Units=km,switch=T !numEQ 155365
new line.CTR134433 bus1=BMT166616248.1.2.3,bus2=BMT125486652.1.2.3,Phases=3,LineCode=tieSwitch,Length=0.001,Units=km,switch=T !numEQ 155367
open line.CTR134433 term=1
new line.CTR134461 bus1=BMT125487037.1.2.3,bus2=BMT125487044.1.2.3,Phases=3,LineCode=tieSwitch,Length=0.001,Units=km,switch=T !numEQ 155366
new line.CTR134468 bus1=BMT125486911.1.2.3,bus2=BMT170520375.1.2.3,Phases=3,LineCode=tieSwitch,Length=0.001,Units=km,switch=T !numEQ 155372
new line.CTR134475 bus1=BMT125486925.1.2.3,bus2=BMT170002393.1.2.3,Phases=3,LineCode=tieSwitch,Length=0.001,Units=km,switch=T !numEQ 155370
new line.CTR134482 bus1=BMT125486904.1.2.3,bus2=BMT137725179.1.2.3,Phases=3,LineCode=tieSwitch,Length=0.001,Units=km,switch=T !numEQ 201559
new line.CTR134692 bus1=BMT160279678.1.2.3,bus2=BMT125484097.1.2.3,Phases=3,LineCode=tieSwitch,Length=0.001,Units=km,switch=T !numEQ 22378
new line.CTR134909 bus1=BMT125480779.2,bus2=BMT166051134.2,Phases=1,LineCode=tieSwitch1,Length=0.001,Units=km,switch=T !numEQ 119572
new line.CTR135245 bus1=BMT152157331.1,bus2=BMT167194934.1,Phases=1,LineCode=tieSwitch1,Length=0.001,Units=km,switch=T !numEQ 93723
new line.CTR147439 bus1=BMT125507323.2,bus2=BMT159336188.2,Phases=1,LineCode=tieSwitch1,Length=0.001,Units=km,switch=T !numEQ 152262
new line.CTR14782 bus1=BMT125506028.3,bus2=BMT125506049.3,Phases=1,LineCode=tieSwitch1,Length=0.001,Units=km,switch=T !numEQ 152263
new line.CTR160900 bus1=BMT125464539.1,bus2=BMT161212155.1,Phases=1,LineCode=tieSwitch1,Length=0.001,Units=km,switch=T !numEQ 110593
new line.CTR160907 bus1=BMT125506378.2,bus2=BMT125507113.2,Phases=1,LineCode=tieSwitch1,Length=0.001,Units=km,switch=T !numEQ 41667
new line.CTR161306 bus1=BMT125497740.1,bus2=BMT125497747.1,Phases=1,LineCode=tieSwitch1,Length=0.001,Units=km,switch=T !numEQ 147339
new line.CTR161586 bus1=BMT168169201.3,bus2=BMT168169440.3,Phases=1,LineCode=tieSwitch1,Length=0.001,Units=km,switch=T !numEQ 201875
new line.CTR162139 bus1=BMT125488682.1.2.3,bus2=BMT158946295.1.2.3,Phases=3,LineCode=tieSwitch,Length=0.001,Units=km,switch=T !numEQ 22795
new line.CTR162146 bus1=BMT125488556.1.2.3,bus2=BMT125488661.1.2.3,Phases=3,LineCode=tieSwitch,Length=0.001,Units=km,switch=T !numEQ 23262
new line.CTR184532 bus1=BMT125510410.3,bus2=BMT125510417.3,Phases=1,LineCode=tieSwitch1,Length=0.001,Units=km,switch=T !numEQ 142793
new line.CTR184735 bus1=BMT125501128.2,bus2=BMT154380367.2,Phases=1,LineCode=tieSwitch1,Length=0.001,Units=km,switch=T !numEQ 40487
new line.CTR184777 bus1=BMT125503564.3,bus2=BMT154383763.3,Phases=1,LineCode=tieSwitch1,Length=0.001,Units=km,switch=T !numEQ 41241
new line.CTR184791 bus1=BMT125493022.3,bus2=BMT125493029.3,Phases=1,LineCode=tieSwitch1,Length=0.001,Units=km,switch=T !numEQ 142766
new line.CTR184987 bus1=BMT125486953.1.2.3,bus2=BMT150750375.1.2.3,Phases=3,LineCode=tieSwitch,Length=0.001,Units=km,switch=T !numEQ 155369
new line.CTR18562 bus1=BMT125492560.3,bus2=BMT125492658.3,Phases=1,LineCode=tieSwitch1,Length=0.001,Units=km,switch=T !numEQ 122358
new line.CTR185694 bus1=BMT125486946.1.2.3,bus2=BMT155283601.1.2.3,Phases=3,LineCode=tieSwitch,Length=0.001,Units=km,switch=T !numEQ 155368
new line.CTR185848 bus1=BMT125492917.3,bus2=BMT125492931.3,Phases=1,LineCode=tieSwitch1,Length=0.001,Units=km,switch=T !numEQ 201237
new line.CTR185911 bus1=BMT125493554.1,bus2=BMT125493673.1,Phases=1,LineCode=tieSwitch1,Length=0.001,Units=km,switch=T !numEQ 201411
new line.CTR185925 bus1=BMT125492672.3,bus2=BMT125492686.3,Phases=1,LineCode=tieSwitch1,Length=0.001,Units=km,switch=T !numEQ 199877
new line.CTR327949 bus1=BMT150578481.1.2.3,bus2=BMT160816348.1.2.3,Phases=3,LineCode=tieSwitch,Length=0.001,Units=km,switch=T !numEQ 232302
new line.CTR349250 bus1=BMT125489130.3,bus2=BMT125489466.3,Phases=1,LineCode=tieSwitch1,Length=0.001,Units=km,switch=T !numEQ 229884
new line.CTR35201 bus1=BMT149066877.1.2.3,bus2=BMT125501394.1.2.3,Phases=3,LineCode=tieSwitch,Length=0.001,Units=km,switch=T !numEQ 154300
new line.CTR38407 bus1=BMT125507407.1,bus2=BMT160601470.1,Phases=1,LineCode=tieSwitch1,Length=0.001,Units=km,switch=T !numEQ 131223
new line.CTR404410 bus1=BMT130852950.1.2.3,bus2=BMT155531000.1.2.3,Phases=3,LineCode=tieSwitch,Length=0.001,Units=km,switch=T !numEQ 300459
new line.CTR405257 bus1=BMT131215200.1,bus2=BMT131433439.1,Phases=1,LineCode=tieSwitch1,Length=0.001,Units=km,switch=T !numEQ 300333
new line.CTR405845 bus1=BMT131450603.3,bus2=BMT166803057.3,Phases=1,LineCode=tieSwitch1,Length=0.001,Units=km,switch=T !numEQ 293684
new line.CTR407812 bus1=BMT132446388.1.2.3,bus2=BMT132455397.1.2.3,Phases=3,LineCode=tieSwitch,Length=0.001,Units=km,switch=T !numEQ 295067
new line.CTR407833 bus1=BMT132455404.1.2.3,bus2=BMT132455411.1.2.3,Phases=3,LineCode=tieSwitch,Length=0.001,Units=km,switch=T !numEQ 295068
new line.CTR40822 bus1=BMT125511621.1,bus2=BMT125511691.1,Phases=1,LineCode=tieSwitch1,Length=0.001,Units=km,switch=T !numEQ 155132
new line.CTR429659 bus1=BMT137864409.2,bus2=BMT163311653.2,Phases=1,LineCode=tieSwitch1,Length=0.001,Units=km,switch=T !numEQ 300442
new line.CTR431521 bus1=BMT138354087.2,bus2=BMT152803412.2,Phases=1,LineCode=tieSwitch1,Length=0.001,Units=km,switch=T !numEQ 308476
new line.CTR431563 bus1=BMT138359673.2,bus2=BMT138360135.2,Phases=1,LineCode=tieSwitch1,Length=0.001,Units=km,switch=T !numEQ 304697
new line.CTR103738 bus1=BMT125500057.3,bus2=BMT125508520.3,Phases=1,LineCode=tieSwitch1,Length=0.001,Units=km,switch=T !numEQ 118934
new line.CTR104004 bus1=BMT125500036.3,bus2=BMT125508548.3,Phases=1,LineCode=tieSwitch1,Length=0.001,Units=km,switch=T !numEQ 118932
new line.CTR104683 bus1=BMT125499917.2,bus2=BMT125508856.2,Phases=1,LineCode=tieSwitch1,Length=0.001,Units=km,switch=T !numEQ 74891
new line.CTR116723 bus1=BMT125487870.1,bus2=BMT171809730.1,Phases=1,LineCode=tieSwitch1,Length=0.001,Units=km,switch=T !numEQ 122336
new line.CTR11702 bus1=BMT125490593.2,bus2=BMT125490761.2,Phases=1,LineCode=tieSwitch1,Length=0.001,Units=km,switch=T !numEQ 125142
new line.CTR128581 bus1=BMT125478364.1.2.3,bus2=BMT125481801.1.2.3,Phases=3,LineCode=tieSwitch,Length=0.001,Units=km,switch=T !numEQ 100901
new line.CTR129218 bus1=BMT125496858.2,bus2=BMT141427234.2,Phases=1,LineCode=tieSwitch1,Length=0.001,Units=km,switch=T !numEQ 100955
new line.CTR129687 bus1=BMT125495031.3,bus2=BMT125495038.3,Phases=1,LineCode=tieSwitch1,Length=0.001,Units=km,switch=T !numEQ 121882
new line.CTR129925 bus1=BMT125485056.1.2.3,bus2=BMT170059876.1.2.3,Phases=3,LineCode=tieSwitch,Length=0.001,Units=km,switch=T !numEQ 22192
new line.CTR129981 bus1=BMT125498062.1,bus2=BMT169321205.1,Phases=1,LineCode=tieSwitch1,Length=0.001,Units=km,switch=T !numEQ 101004
new line.CTR130107 bus1=BMT125477713.3,bus2=BMT125477734.3,Phases=1,LineCode=tieSwitch1,Length=0.001,Units=km,switch=T !numEQ 25896
new line.CTR142532 bus1=BMT125500827.3,bus2=BMT125501051.3,Phases=1,LineCode=tieSwitch1,Length=0.001,Units=km,switch=T !numEQ 137146
new line.CTR142546 bus1=BMT125509073.1.2.3,bus2=BMT134420248.1.2.3,Phases=3,LineCode=tieSwitch,Length=0.001,Units=km,switch=T !numEQ 22765
new line.CTR14264 bus1=BMT125488787.3,bus2=BMT125491923.3,Phases=1,LineCode=tieSwitch1,Length=0.001,Units=km,switch=T !numEQ 134370
new line.CTR142945 bus1=BMT125481703.1.2.3,bus2=BMT125481773.1.2.3,Phases=3,LineCode=tieSwitch,Length=0.001,Units=km,switch=T !numEQ 22291
new line.CTR143337 bus1=BMT125509759.1,bus2=BMT125510060.1,Phases=1,LineCode=tieSwitch1,Length=0.001,Units=km,switch=T !numEQ 120697
new line.CTR143344 bus1=BMT125479456.2,bus2=BMT125479687.2,Phases=1,LineCode=tieSwitch1,Length=0.001,Units=km,switch=T !numEQ 120713
new line.CTR154152 bus1=BMT168903537.2,bus2=BMT168903546.2,Phases=1,LineCode=tieSwitch1,Length=0.001,Units=km,switch=T !numEQ 100972
new line.CTR154173 bus1=BMT125494142.3,bus2=BMT125494380.3,Phases=1,LineCode=tieSwitch1,Length=0.001,Units=km,switch=T !numEQ 122330
new line.CTR154285 bus1=BMT152442977.1.2.3,bus2=BMT159554235.1.2.3,Phases=3,LineCode=tieSwitch,Length=0.001,Units=km,switch=T !numEQ 41517
new line.CTR154579 bus1=BMT125493589.1,bus2=BMT160650609.1,Phases=1,LineCode=tieSwitch1,Length=0.001,Units=km,switch=T !numEQ 102970
new line.CTR154831 bus1=BMT141209898.1.2.3,bus2=BMT156833311.1.2.3,Phases=3,LineCode=tieSwitch,Length=0.001,Units=km,switch=T !numEQ 40475
new line.CTR154901 bus1=BMT125485742.1,bus2=BMT158831308.1,Phases=1,LineCode=tieSwitch1,Length=0.001,Units=km,switch=T !numEQ 111811
new line.CTR155293 bus1=BMT125509269.2,bus2=BMT125509290.2,Phases=1,LineCode=tieSwitch1,Length=0.001,Units=km,switch=T !numEQ 108470
new line.CTR166521 bus1=BMT125477797.3,bus2=BMT158538786.3,Phases=1,LineCode=tieSwitch1,Length=0.001,Units=km,switch=T !numEQ 120715
new line.CTR166535 bus1=BMT125487716.1,bus2=BMT163127318.1,Phases=1,LineCode=tieSwitch1,Length=0.001,Units=km,switch=T !numEQ 152630
new line.CTR166542 bus1=BMT125464301.1.2.3,bus2=BMT158295264.1.2.3,Phases=3,LineCode=tieSwitch,Length=0.001,Units=km,switch=T !numEQ 22689
new line.CTR166941 bus1=BMT125492371.3,bus2=BMT125492399.3,Phases=1,LineCode=tieSwitch1,Length=0.001,Units=km,switch=T !numEQ 122391
new line.CTR177784 bus1=BMT125481199.2,bus2=BMT165446166.2,Phases=1,LineCode=tieSwitch1,Length=0.001,Units=km,switch=T !numEQ 141174
new line.CTR178379 bus1=BMT125507729.1,bus2=BMT125507750.1,Phases=1,LineCode=tieSwitch1,Length=0.001,Units=km,switch=T !numEQ 137144
new line.CTR178652 bus1=BMT125500022.3,bus2=BMT162954821.3,Phases=1,LineCode=tieSwitch1,Length=0.001,Units=km,switch=T !numEQ 118933
new line.CTR178666 bus1=BMT125505517.2,bus2=BMT165056806.2,Phases=1,LineCode=tieSwitch1,Length=0.001,Units=km,switch=T !numEQ 141201
new line.CTR17911 bus1=BMT125504684.1.2.3,bus2=BMT125504712.1.2.3,Phases=3,LineCode=tieSwitch,Length=0.001,Units=km,switch=T !numEQ 42201
new line.CTR179268 bus1=BMT125479974.2,bus2=BMT125480002.2,Phases=1,LineCode=tieSwitch1,Length=0.001,Units=km,switch=T !numEQ 140882
new line.CTR188011 bus1=BMT157435139.2,bus2=BMT157435140.2,Phases=1,LineCode=tieSwitch1,Length=0.001,Units=km,switch=T !numEQ 213300
new line.CTR188018 bus1=BMT125485203.1.2.3,bus2=BMT157435134.1.2.3,Phases=3,LineCode=tieSwitch,Length=0.001,Units=km,switch=T !numEQ 213299
new line.CTR188095 bus1=BMT125488178.2,bus2=BMT125488199.2,Phases=1,LineCode=tieSwitch1,Length=0.001,Units=km,switch=T !numEQ 211869
new line.CTR18828 bus1=BMT125506819.2,bus2=BMT164717108.2,Phases=1,LineCode=tieSwitch1,Length=0.001,Units=km,switch=T !numEQ 124636
new line.CTR188963 bus1=BMT125489326.3,bus2=BMT125489340.3,Phases=1,LineCode=tieSwitch1,Length=0.001,Units=km,switch=T !numEQ 211866
new line.CTR188977 bus1=BMT125492133.1,bus2=BMT168083234.1,Phases=1,LineCode=tieSwitch1,Length=0.001,Units=km,switch=T !numEQ 154325
new line.CTR189152 bus1=BMT125488731.3,bus2=BMT125488920.3,Phases=1,LineCode=tieSwitch1,Length=0.001,Units=km,switch=T !numEQ 214738
new line.CTR2161 bus1=BMT125479841.2,bus2=BMT157044069.2,Phases=1,LineCode=tieSwitch1,Length=0.001,Units=km,switch=T !numEQ 23547
new line.CTR21642 bus1=BMT125497082.2,bus2=BMT125497089.2,Phases=1,LineCode=tieSwitch1,Length=0.001,Units=km,switch=T !numEQ 130948
new line.CTR36153 bus1=BMT125486869.1.2.3,bus2=BMT125486876.1.2.3,Phases=3,LineCode=tieSwitch,Length=0.001,Units=km,switch=T !numEQ 155371
new line.CTR363579 bus1=BMT125478700.1.2.3,bus2=BMT125478707.1.2.3,Phases=3,LineCode=tieSwitch,Length=0.001,Units=km,switch=T !numEQ 224902
new line.CTR40031 bus1=BMT158132888.1.2.3,bus2=BMT158132889.1.2.3,Phases=3,LineCode=tieSwitch,Length=0.001,Units=km,switch=T !numEQ 22199
new line.CTR45505 bus1=BMT125485602.1.2.3,bus2=BMT125486288.1.2.3,Phases=3,LineCode=tieSwitch,Length=0.001,Units=km,switch=T !numEQ 22229
new line.CTR45526 bus1=BMT125496004.1.2.3,bus2=BMT162668207.1.2.3,Phases=3,LineCode=tieSwitch,Length=0.001,Units=km,switch=T !numEQ 107674
new line.CTR45533 bus1=BMT125495899.1,bus2=BMT125498020.1,Phases=1,LineCode=tieSwitch1,Length=0.001,Units=km,switch=T !numEQ 107675
new line.CTR160088 bus1=BMT125508429.2,bus2=BMT125508506.2,Phases=1,LineCode=tieSwitch1,Length=0.001,Units=km,switch=T !numEQ 119582
new line.CTR160095 bus1=BMT125508226.3,bus2=BMT125508303.3,Phases=1,LineCode=tieSwitch1,Length=0.001,Units=km,switch=T !numEQ 119578
new line.CTR160102 bus1=BMT125508219.3,bus2=BMT125508331.3,Phases=1,LineCode=tieSwitch1,Length=0.001,Units=km,switch=T !numEQ 119579
new line.CTR160109 bus1=BMT125508212.3,bus2=BMT125508345.3,Phases=1,LineCode=tieSwitch1,Length=0.001,Units=km,switch=T !numEQ 119580
new line.CTR160116 bus1=BMT152803415.2,bus2=BMT164849461.2,Phases=1,LineCode=tieSwitch1,Length=0.001,Units=km,switch=T !numEQ 119576
new line.CTR160130 bus1=BMT172803453.2,bus2=BMT172803482.2,Phases=1,LineCode=tieSwitch1,Length=0.001,Units=km,switch=T !numEQ 119574
new line.CTR160221 bus1=BMT173201506.2,bus2=BMT125479071.2,Phases=1,LineCode=tieSwitch1,Length=0.001,Units=km,switch=T !numEQ 23041
open line.CTR160221 term=1
new line.CTR160228 bus1=BMT125479869.2,bus2=BMT156906581.2,Phases=1,LineCode=tieSwitch1,Length=0.001,Units=km,switch=T !numEQ 119567
new line.CTR160277 bus1=BMT125510585.3,bus2=BMT125510865.3,Phases=1,LineCode=tieSwitch1,Length=0.001,Units=km,switch=T !numEQ 118942
new line.CTR172821 bus1=BMT125493491.1,bus2=BMT125493505.1,Phases=1,LineCode=tieSwitch1,Length=0.001,Units=km,switch=T !numEQ 122333
new line.CTR173514 bus1=BMT153903899.1.2.3,bus2=BMT125501408.1.2.3,Phases=3,LineCode=tieSwitch,Length=0.001,Units=km,switch=T !numEQ 154775
new line.CTR173556 bus1=BMT125500533.1.2.3,bus2=BMT125500540.1.2.3,Phases=3,LineCode=tieSwitch,Length=0.001,Units=km,switch=T !numEQ 154264
new line.CTR174074 bus1=BMT125490243.2,bus2=BMT125490250.2,Phases=1,LineCode=tieSwitch1,Length=0.001,Units=km,switch=T !numEQ 155335
new line.CTR174123 bus1=BMT157459043.1.2.3,bus2=BMT2882010.1.2.3,Phases=3,LineCode=tieSwitch,Length=0.001,Units=km,switch=T !numEQ 22383
open line.CTR174123 term=1
new line.CTR174130 bus1=BMT125483894.1.2.3,bus2=BMT161254703.1.2.3,Phases=3,LineCode=tieSwitch,Length=0.001,Units=km,switch=T !numEQ 22384
new line.CTR182768 bus1=BMT125500638.1.2.3,bus2=BMT125500652.1.2.3,Phases=3,LineCode=tieSwitch,Length=0.001,Units=km,switch=T !numEQ 154450
new line.CTR182775 bus1=BMT125500169.1,bus2=BMT125500183.1,Phases=1,LineCode=tieSwitch1,Length=0.001,Units=km,switch=T !numEQ 152096
new line.CTR182950 bus1=BMT125503438.3,bus2=BMT125503487.3,Phases=1,LineCode=tieSwitch1,Length=0.001,Units=km,switch=T !numEQ 125474
new line.CTR183328 bus1=BMT125478735.1.2.3,bus2=BMT151907611.1.2.3,Phases=3,LineCode=tieSwitch,Length=0.001,Units=km,switch=T !numEQ 122574
new line.CTR183398 bus1=BMT134420276.1,bus2=BMT134420997.1,Phases=1,LineCode=tieSwitch1,Length=0.001,Units=km,switch=T !numEQ 155122
new line.CTR183405 bus1=BMT125509129.2,bus2=BMT125509136.2,Phases=1,LineCode=tieSwitch1,Length=0.001,Units=km,switch=T !numEQ 155123
new line.CTR183720 bus1=BMT125493253.3,bus2=BMT125493260.3,Phases=1,LineCode=tieSwitch1,Length=0.001,Units=km,switch=T !numEQ 140878
new line.CTR183727 bus1=BMT125493302.3,bus2=BMT156201274.3,Phases=1,LineCode=tieSwitch1,Length=0.001,Units=km,switch=T !numEQ 140879
new line.CTR18373 bus1=BMT125488381.2,bus2=BMT169324721.2,Phases=1,LineCode=tieSwitch1,Length=0.001,Units=km,switch=T !numEQ 107315
new line.CTR183825 bus1=BMT125489102.3,bus2=BMT125489522.3,Phases=1,LineCode=tieSwitch1,Length=0.001,Units=km,switch=T !numEQ 154306
new line.CTR183888 bus1=BMT125490096.2,bus2=BMT172926745.2,Phases=1,LineCode=tieSwitch1,Length=0.001,Units=km,switch=T !numEQ 153929
new line.CTR184014 bus1=BMT125493323.3,bus2=BMT125493372.3,Phases=1,LineCode=tieSwitch1,Length=0.001,Units=km,switch=T !numEQ 140891
new line.CTR184021 bus1=BMT125489193.3,bus2=BMT125489403.3,Phases=1,LineCode=tieSwitch1,Length=0.001,Units=km,switch=T !numEQ 153246
new line.CTR184070 bus1=BMT125490404.2,bus2=BMT127457292.2,Phases=1,LineCode=tieSwitch1,Length=0.001,Units=km,switch=T !numEQ 153878
new line.CTR18408 bus1=BMT125478742.1.2.3,bus2=BMT168952833.1.2.3,Phases=3,LineCode=tieSwitch,Length=0.001,Units=km,switch=T !numEQ 22302
new line.CTR184126 bus1=BMT125488808.1,bus2=BMT125491895.1,Phases=1,LineCode=tieSwitch1,Length=0.001,Units=km,switch=T !numEQ 153926
new line.CTR195762 bus1=BMT125508667.1.2.3,bus2=BMT125508674.1.2.3,Phases=3,LineCode=tieSwitch,Length=0.001,Units=km,switch=T !numEQ 224915
new line.CTR19640 bus1=BMT125501954.1,bus2=BMT125503298.1,Phases=1,LineCode=tieSwitch1,Length=0.001,Units=km,switch=T !numEQ 130626
new line.CTR22846 bus1=BMT125507666.1,bus2=BMT125507778.1,Phases=1,LineCode=tieSwitch1,Length=0.001,Units=km,switch=T !numEQ 105116
new line.CTR24596 bus1=BMT125487975.3,bus2=BMT125493099.3,Phases=1,LineCode=tieSwitch1,Length=0.001,Units=km,switch=T !numEQ 134685
new line.CTR24603 bus1=BMT125509157.2,bus2=BMT125509444.2,Phases=1,LineCode=tieSwitch1,Length=0.001,Units=km,switch=T !numEQ 119558
new line.CTR30581 bus1=BMT125487051.1.2.3,bus2=BMT163270061.1.2.3,Phases=3,LineCode=tieSwitch,Length=0.001,Units=km,switch=T !numEQ 22258
new line.CTR345820 bus1=BMT125492602.3,bus2=BMT125492637.3,Phases=1,LineCode=tieSwitch1,Length=0.001,Units=km,switch=T !numEQ 224833
new line.CTR43321 bus1=BMT125487968.1.2.3,bus2=BMT125487982.1.2.3,Phases=3,LineCode=tieSwitch,Length=0.001,Units=km,switch=T !numEQ 22966
new line.CTR434699 bus1=BMT139272774.1,bus2=BMT139272788.1,Phases=1,LineCode=tieSwitch1,Length=0.001,Units=km,switch=T !numEQ 310453
new line.CTR458667 bus1=BMT145467326.3,bus2=BMT162412449.3,Phases=1,LineCode=tieSwitch1,Length=0.001,Units=km,switch=T !numEQ 310400
new line.CTR45946 bus1=BMT125510732.3,bus2=BMT125510746.3,Phases=1,LineCode=tieSwitch1,Length=0.001,Units=km,switch=T !numEQ 104826
new line.CTR52540 bus1=BMT125501975.1.2.3,bus2=BMT152224315.1.2.3,Phases=3,LineCode=tieSwitch,Length=0.001,Units=km,switch=T !numEQ 40611
new line.CTR52547 bus1=BMT125501681.1,bus2=BMT168608963.1,Phases=1,LineCode=tieSwitch1,Length=0.001,Units=km,switch=T !numEQ 41067
new line.CTR52554 bus1=BMT161740960.1,bus2=BMT161740966.1,Phases=1,LineCode=tieSwitch1,Length=0.001,Units=km,switch=T !numEQ 41039
new line.CTR52575 bus1=BMT125505335.2,bus2=BMT171894867.2,Phases=1,LineCode=tieSwitch1,Length=0.001,Units=km,switch=T !numEQ 41438
new line.CTR52603 bus1=BMT125501919.1.2.3,bus2=BMT167609583.1.2.3,Phases=3,LineCode=tieSwitch,Length=0.001,Units=km,switch=T !numEQ 40468
new line.CTR52617 bus1=BMT125501940.1.2.3,bus2=BMT125503403.1.2.3,Phases=3,LineCode=tieSwitch,Length=0.001,Units=km,switch=T !numEQ 40474
new line.CTR52631 bus1=BMT125501821.1.2.3,bus2=BMT172907999.1.2.3,Phases=3,LineCode=tieSwitch,Length=0.001,Units=km,switch=T !numEQ 189862
new line.CTR11149 bus1=BMT125511138.2,bus2=BMT125511257.2,Phases=1,LineCode=tieSwitch1,Length=0.001,Units=km,switch=T !numEQ 121847
new line.CTR11156 bus1=BMT125496333.1,bus2=BMT154423827.1,Phases=1,LineCode=tieSwitch1,Length=0.001,Units=km,switch=T !numEQ 121846
new line.CTR111865 bus1=BMT125500015.1.2.3,bus2=BMT125508625.1.2.3,Phases=3,LineCode=tieSwitch,Length=0.001,Units=km,switch=T !numEQ 136876
new line.CTR11205 bus1=BMT125497670.1,bus2=BMT168989446.1,Phases=1,LineCode=tieSwitch1,Length=0.001,Units=km,switch=T !numEQ 120703
new line.CTR11219 bus1=BMT125498692.1,bus2=BMT166840065.1,Phases=1,LineCode=tieSwitch1,Length=0.001,Units=km,switch=T !numEQ 120700
new line.CTR11226 bus1=BMT125498762.1,bus2=BMT170953404.1,Phases=1,LineCode=tieSwitch1,Length=0.001,Units=km,switch=T !numEQ 120699
new line.CTR11247 bus1=BMT125509766.1,bus2=BMT125509948.1,Phases=1,LineCode=tieSwitch1,Length=0.001,Units=km,switch=T !numEQ 121844
new line.CTR11268 bus1=BMT125495458.3,bus2=BMT125495486.3,Phases=1,LineCode=tieSwitch1,Length=0.001,Units=km,switch=T !numEQ 121872
new line.CTR12395 bus1=BMT125501611.3,bus2=BMT125501632.3,Phases=1,LineCode=tieSwitch1,Length=0.001,Units=km,switch=T !numEQ 131221
new line.CTR124297 bus1=BMT125482809.1.2.3,bus2=BMT125482816.1.2.3,Phases=3,LineCode=tieSwitch,Length=0.001,Units=km,switch=T !numEQ 22322
new line.CTR124892 bus1=BMT125504635.1.2.3,bus2=BMT140411744.1.2.3,Phases=3,LineCode=tieSwitch,Length=0.001,Units=km,switch=T !numEQ 40515
new line.CTR137982 bus1=BMT125496872.2,bus2=BMT125497117.2,Phases=1,LineCode=tieSwitch1,Length=0.001,Units=km,switch=T !numEQ 152157
new line.CTR150939 bus1=BMT125480107.2,bus2=BMT161007194.2,Phases=1,LineCode=tieSwitch1,Length=0.001,Units=km,switch=T !numEQ 152143
new line.CTR151695 bus1=BMT125482011.1.2.3,bus2=BMT125482221.1.2.3,Phases=3,LineCode=tieSwitch,Length=0.001,Units=km,switch=T !numEQ 22271
new line.CTR151975 bus1=BMT125508933.1,bus2=BMT125510956.1,Phases=1,LineCode=tieSwitch1,Length=0.001,Units=km,switch=T !numEQ 119550
new line.CTR152220 bus1=BMT151512101.2,bus2=BMT151512189.2,Phases=1,LineCode=tieSwitch1,Length=0.001,Units=km,switch=T !numEQ 190894
new line.CTR168012 bus1=BMT125494618.1.2.3,bus2=BMT162667709.1.2.3,Phases=3,LineCode=tieSwitch,Length=0.001,Units=km,switch=T !numEQ 23505
new line.CTR168635 bus1=BMT125464532.3,bus2=BMT168801305.3,Phases=1,LineCode=tieSwitch1,Length=0.001,Units=km,switch=T !numEQ 102964
new line.CTR168831 bus1=BMT125491363.1,bus2=BMT125491370.1,Phases=1,LineCode=tieSwitch1,Length=0.001,Units=km,switch=T !numEQ 102968
new line.CTR169055 bus1=BMT125501947.1.2.3,bus2=BMT125503319.1.2.3,Phases=3,LineCode=tieSwitch,Length=0.001,Units=km,switch=T !numEQ 41397
new line.CTR176615 bus1=BMT125494660.3,bus2=BMT125494779.3,Phases=1,LineCode=tieSwitch1,Length=0.001,Units=km,switch=T !numEQ 22776
new line.CTR176629 bus1=BMT156237945.2,bus2=BMT156237963.2,Phases=1,LineCode=tieSwitch1,Length=0.001,Units=km,switch=T !numEQ 152611
new line.CTR17736 bus1=BMT125479001.1.2.3,bus2=BMT125481437.1.2.3,Phases=3,LineCode=tieSwitch,Length=0.001,Units=km,switch=T !numEQ 122067
new line.CTR189754 bus1=BMT125490194.2,bus2=BMT125490362.2,Phases=1,LineCode=tieSwitch1,Length=0.001,Units=km,switch=T !numEQ 153876
new line.CTR189775 bus1=BMT125490698.2,bus2=BMT125490712.2,Phases=1,LineCode=tieSwitch1,Length=0.001,Units=km,switch=T !numEQ 153879
new line.CTR189978 bus1=BMT125499707.1.2.3,bus2=BMT167271334.1.2.3,Phases=3,LineCode=tieSwitch,Length=0.001,Units=km,switch=T !numEQ 155357
new line.CTR190062 bus1=BMT125511201.2,bus2=BMT125511215.2,Phases=1,LineCode=tieSwitch1,Length=0.001,Units=km,switch=T !numEQ 217634
new line.CTR190664 bus1=BMT125499700.3,bus2=BMT125511446.3,Phases=1,LineCode=tieSwitch1,Length=0.001,Units=km,switch=T !numEQ 155358
new line.CTR190671 bus1=BMT125499630.1.2.3,bus2=BMT155966497.1.2.3,Phases=3,LineCode=tieSwitch,Length=0.001,Units=km,switch=T !numEQ 213272
new line.CTR191259 bus1=BMT125498951.1,bus2=BMT125498965.1,Phases=1,LineCode=tieSwitch1,Length=0.001,Units=km,switch=T !numEQ 218962
new line.CTR21922 bus1=BMT125507218.2,bus2=BMT125507225.2,Phases=1,LineCode=tieSwitch1,Length=0.001,Units=km,switch=T !numEQ 152152
new line.CTR355746 bus1=BMT125478497.1.2.3,bus2=BMT125478679.1.2.3,Phases=3,LineCode=tieSwitch,Length=0.001,Units=km,switch=T !numEQ 224900
new line.CTR356397 bus1=BMT125478721.1.2.3,bus2=BMT159807740.1.2.3,Phases=3,LineCode=tieSwitch,Length=0.001,Units=km,switch=T !numEQ 192249
new line.CTR392426 bus1=BMT127146135.1.2.3,bus2=BMT149063150.1.2.3,Phases=3,LineCode=tieSwitch,Length=0.001,Units=km,switch=T !numEQ 224795
new line.CTR39282 bus1=BMT150971694.1.2.3,bus2=BMT125501317.1.2.3,Phases=3,LineCode=tieSwitch,Length=0.001,Units=km,switch=T !numEQ 154981
new line.CTR393378 bus1=BMT127457313.2,bus2=BMT173035463.2,Phases=1,LineCode=tieSwitch1,Length=0.001,Units=km,switch=T !numEQ 283287
new line.CTR394148 bus1=BMT137393848.2,bus2=BMT160443146.2,Phases=1,LineCode=tieSwitch1,Length=0.001,Units=km,switch=T !numEQ 289714
new line.CTR394596 bus1=BMT127843594.1.2.3,bus2=BMT157265124.1.2.3,Phases=3,LineCode=tieSwitch,Length=0.001,Units=km,switch=T !numEQ 286630
new line.CTR394603 bus1=BMT127843853.2,bus2=BMT157265122.2,Phases=1,LineCode=tieSwitch1,Length=0.001,Units=km,switch=T !numEQ 286631
new line.CTR394645 bus1=BMT127862760.2,bus2=BMT127862816.2,Phases=1,LineCode=tieSwitch1,Length=0.001,Units=km,switch=T !numEQ 286632
new line.CTR394778 bus1=BMT127904235.1.2.3,bus2=BMT127904242.1.2.3,Phases=3,LineCode=tieSwitch,Length=0.001,Units=km,switch=T !numEQ 295229
new line.CTR394785 bus1=BMT127904571.1.2.3,bus2=BMT143656517.1.2.3,Phases=3,LineCode=tieSwitch,Length=0.001,Units=km,switch=T !numEQ 295230
new line.CTR445962 bus1=BMT142140072.1.2.3,bus2=BMT144641767.1.2.3,Phases=3,LineCode=tieSwitch,Length=0.001,Units=km,switch=T !numEQ 305307
new line.CTR446004 bus1=BMT167775818.1.2.3,bus2=BMT142171635.1.2.3,Phases=3,LineCode=tieSwitch,Length=0.001,Units=km,switch=T !numEQ 305308
open line.CTR446004 term=1
new line.CTR446011 bus1=BMT142173952.1.2.3,bus2=BMT142202043.1.2.3,Phases=3,LineCode=tieSwitch,Length=0.001,Units=km,switch=T !numEQ 305306
new line.CTR446018 bus1=BMT167775815.1.2.3,bus2=BMT167775816.1.2.3,Phases=3,LineCode=tieSwitch,Length=0.001,Units=km,switch=T !numEQ 305309
new line.CTR446025 bus1=BMT142174932.1.2.3,bus2=BMT158676399.1.2.3,Phases=3,LineCode=tieSwitch,Length=0.001,Units=km,switch=T !numEQ 305310
new line.CTR446382 bus1=BMT142242202.1.2.3,bus2=BMT142263125.1.2.3,Phases=3,LineCode=tieSwitch,Length=0.001,Units=km,switch=T !numEQ 309474
new line.CTR55529 bus1=BMT125499287.1,bus2=BMT125499294.1,Phases=1,LineCode=tieSwitch1,Length=0.001,Units=km,switch=T !numEQ 102965
new line.CTR158849 bus1=BMT125478770.1.2.3,bus2=BMT148180261.1.2.3,Phases=3,LineCode=tieSwitch,Length=0.001,Units=km,switch=T !numEQ 22303
new line.CTR158870 bus1=BMT125478889.1.2.3,bus2=BMT170938121.1.2.3,Phases=3,LineCode=tieSwitch,Length=0.001,Units=km,switch=T !numEQ 22305
new line.CTR158877 bus1=BMT156819330.1.2.3,bus2=BMT2277560.1.2.3,Phases=3,LineCode=tieSwitch,Length=0.001,Units=km,switch=T !numEQ 22252
open line.CTR158877 term=1
new line.CTR171372 bus1=BMT125479897.2,bus2=BMT125479946.2,Phases=1,LineCode=tieSwitch1,Length=0.001,Units=km,switch=T !numEQ 119583
new line.CTR171442 bus1=BMT152972587.1,bus2=BMT161074678.1,Phases=1,LineCode=tieSwitch1,Length=0.001,Units=km,switch=T !numEQ 140880
new line.CTR171463 bus1=BMT125488584.3,bus2=BMT160801133.3,Phases=1,LineCode=tieSwitch1,Length=0.001,Units=km,switch=T !numEQ 144831
new line.CTR171848 bus1=BMT125487856.3,bus2=BMT162946180.3,Phases=1,LineCode=tieSwitch1,Length=0.001,Units=km,switch=T !numEQ 122335
new line.CTR171855 bus1=BMT125487863.1.2.3,bus2=BMT125493729.1.2.3,Phases=3,LineCode=tieSwitch,Length=0.001,Units=km,switch=T !numEQ 23544
new line.CTR17190 bus1=BMT125510669.3,bus2=BMT159106784.3,Phases=1,LineCode=tieSwitch1,Length=0.001,Units=km,switch=T !numEQ 118943
new line.CTR172401 bus1=BMT125499112.1,bus2=BMT125499161.1,Phases=1,LineCode=tieSwitch1,Length=0.001,Units=km,switch=T !numEQ 139842
new line.CTR181648 bus1=BMT125494009.3,bus2=BMT125494065.3,Phases=1,LineCode=tieSwitch1,Length=0.001,Units=km,switch=T !numEQ 154832
new line.CTR182313 bus1=BMT125499469.1.2.3,bus2=BMT125499497.1.2.3,Phases=3,LineCode=tieSwitch,Length=0.001,Units=km,switch=T !numEQ 23037
new line.CTR182320 bus1=BMT125499518.1.2.3,bus2=BMT172366714.1.2.3,Phases=3,LineCode=tieSwitch,Length=0.001,Units=km,switch=T !numEQ 155359
new line.CTR182600 bus1=BMT125488521.1.2.3,bus2=BMT171277191.1.2.3,Phases=3,LineCode=tieSwitch,Length=0.001,Units=km,switch=T !numEQ 153226
new line.CTR182670 bus1=BMT125500687.1.2.3,bus2=BMT149038159.1.2.3,Phases=3,LineCode=tieSwitch,Length=0.001,Units=km,switch=T !numEQ 154770
new line.CTR20613 bus1=BMT125503893.3,bus2=BMT125504110.3,Phases=1,LineCode=tieSwitch1,Length=0.001,Units=km,switch=T !numEQ 140189
new line.CTR22713 bus1=BMT125507813.1,bus2=BMT155968749.1,Phases=1,LineCode=tieSwitch1,Length=0.001,Units=km,switch=T !numEQ 152051
new line.CTR22720 bus1=BMT125506721.2,bus2=BMT157143408.2,Phases=1,LineCode=tieSwitch1,Length=0.001,Units=km,switch=T !numEQ 152052
new line.CTR24785 bus1=BMT125492833.3,bus2=BMT172187870.3,Phases=1,LineCode=tieSwitch1,Length=0.001,Units=km,switch=T !numEQ 134693
new line.CTR24834 bus1=BMT125499035.1,bus2=BMT171433970.1,Phases=1,LineCode=tieSwitch1,Length=0.001,Units=km,switch=T !numEQ 134684
new line.CTR26647 bus1=BMT125496508.2,bus2=BMT125496711.2,Phases=1,LineCode=tieSwitch1,Length=0.001,Units=km,switch=T !numEQ 152140
new line.CTR31708 bus1=BMT125498195.1,bus2=BMT160786104.1,Phases=1,LineCode=tieSwitch1,Length=0.001,Units=km,switch=T !numEQ 144474
new line.CTR33815 bus1=BMT125505475.2,bus2=BMT125505510.2,Phases=1,LineCode=tieSwitch1,Length=0.001,Units=km,switch=T !numEQ 141200
new line.CTR33829 bus1=BMT125489207.3,bus2=BMT125489298.3,Phases=1,LineCode=tieSwitch1,Length=0.001,Units=km,switch=T !numEQ 130906
new line.CTR389780 bus1=BMT125482564.1.2.3,bus2=BMT157919654.1.2.3,Phases=3,LineCode=tieSwitch,Length=0.001,Units=km,switch=T !numEQ 224864
new line.CTR417129 bus1=BMT134423167.2,bus2=BMT157136161.2,Phases=1,LineCode=tieSwitch1,Length=0.001,Units=km,switch=T !numEQ 302949
new line.CTR41725 bus1=BMT125505293.2,bus2=BMT125505965.2,Phases=1,LineCode=tieSwitch1,Length=0.001,Units=km,switch=T !numEQ 191670
new line.CTR439277 bus1=BMT140525165.1.2.3,bus2=BMT171131542.1.2.3,Phases=3,LineCode=tieSwitch,Length=0.001,Units=km,switch=T !numEQ 308558
new line.CTR465856 bus1=BMT147575677.1.2.3,bus2=BMT150006379.1.2.3,Phases=3,LineCode=tieSwitch,Length=0.001,Units=km,switch=T !numEQ 315543
new line.CTR46758 bus1=BMT138354913.2,bus2=BMT172803449.2,Phases=1,LineCode=tieSwitch1,Length=0.001,Units=km,switch=T !numEQ 119575
new line.CTR46954 bus1=BMT125499049.1,bus2=BMT125499175.1,Phases=1,LineCode=tieSwitch1,Length=0.001,Units=km,switch=T !numEQ 102476
new line.CTR5920 bus1=BMT125477615.1,bus2=BMT125477629.1,Phases=1,LineCode=tieSwitch1,Length=0.001,Units=km,switch=T !numEQ 147586
new line.CTR62417 bus1=BMT125486561.1.2.3,bus2=BMT166616241.1.2.3,Phases=3,LineCode=tieSwitch,Length=0.001,Units=km,switch=T !numEQ 155364
new line.CTR6256 bus1=BMT125503739.3,bus2=BMT160828835.3,Phases=1,LineCode=tieSwitch1,Length=0.001,Units=km,switch=T !numEQ 140874
new line.CTR7054 bus1=BMT125498489.2,bus2=BMT162667869.2,Phases=1,LineCode=tieSwitch1,Length=0.001,Units=km,switch=T !numEQ 107945
new line.CTR7068 bus1=BMT125498055.1,bus2=BMT125498342.1,Phases=1,LineCode=tieSwitch1,Length=0.001,Units=km,switch=T !numEQ 107676
new line.CTR7075 bus1=BMT125498636.1,bus2=BMT166840060.1,Phases=1,LineCode=tieSwitch1,Length=0.001,Units=km,switch=T !numEQ 107677
new line.CTR74247 bus1=BMT125494324.3,bus2=BMT159088817.3,Phases=1,LineCode=tieSwitch1,Length=0.001,Units=km,switch=T !numEQ 107317
new line.CTR74576 bus1=BMT125490621.2,bus2=BMT125490691.2,Phases=1,LineCode=tieSwitch1,Length=0.001,Units=km,switch=T !numEQ 130907
new line.CTR74779 bus1=BMT125490145.2,bus2=BMT125490502.2,Phases=1,LineCode=tieSwitch1,Length=0.001,Units=km,switch=T !numEQ 22802
new line.CTR80225 bus1=BMT125482410.1.2.3,bus2=BMT125482424.1.2.3,Phases=3,LineCode=tieSwitch,Length=0.001,Units=km,switch=T !numEQ 22209
new line.CTR80246 bus1=BMT125483075.1.2.3,bus2=BMT138941268.1.2.3,Phases=3,LineCode=tieSwitch,Length=0.001,Units=km,switch=T !numEQ 22398
new line.CTR80260 bus1=BMT138941310.1.2.3,bus2=BMT138941331.1.2.3,Phases=3,LineCode=tieSwitch,Length=0.001,Units=km,switch=T !numEQ 22403
new line.CTR80267 bus1=BMT125483117.1.2.3,bus2=BMT156840936.1.2.3,Phases=3,LineCode=tieSwitch,Length=0.001,Units=km,switch=T !numEQ 23639
new line.CTR80274 bus1=BMT125483383.2,bus2=BMT157303263.2,Phases=1,LineCode=tieSwitch1,Length=0.001,Units=km,switch=T !numEQ 22404
new line.CTR80288 bus1=BMT125483152.1.2.3,bus2=BMT125483362.1.2.3,Phases=3,LineCode=tieSwitch,Length=0.001,Units=km,switch=T !numEQ 22401
new line.CTR80295 bus1=BMT125483131.1.2.3,bus2=BMT125483348.1.2.3,Phases=3,LineCode=tieSwitch,Length=0.001,Units=km,switch=T !numEQ 22306
...