2024_89_CemigReconfigurationCases/1_AlimsCemig/SND04/SND04Transformadores.dss
new transformer.1006655 Phases=1,Windings=3,Buses=[BMT125491972.3 BBT101494264.1.0 BBT101494264.0.2],Conns=[wye wye wye],kvs=[7.967 0.12 0.12],kvas=[5.000000000 5.000000000 5.000000000],Taps=[1,1.000000000,1.000000000],%loadloss=1.900000000,%noloadloss=0.600000000
new transformer.1054619 Phases=1,Windings=3,Buses=[BMT127904249.1 BBT119367672.1.0 BBT119367672.0.2],Conns=[wye wye wye],kvs=[7.967 0.12 0.12],kvas=[5.000000000 5.000000000 5.000000000],Taps=[1,1.000000000,1.000000000],%loadloss=1.900000000,%noloadloss=0.600000000
new transformer.1055060 Phases=1,Windings=3,Buses=[BMT153601272.1 BBT119538437.1.0 BBT119538437.0.2],Conns=[wye wye wye],kvs=[7.967 0.12 0.12],kvas=[5.000000000 5.000000000 5.000000000],Taps=[1,1.000000000,1.000000000],%loadloss=1.900000000,%noloadloss=0.600000000
new transformer.1055228 Phases=1,Windings=3,Buses=[BMT125494051.3 BBT119621247.1.0 BBT119621247.0.2],Conns=[wye wye wye],kvs=[7.967 0.12 0.12],kvas=[5.000000000 5.000000000 5.000000000],Taps=[1,1.000000000,1.000000000],%loadloss=1.900000000,%noloadloss=0.600000000
new transformer.1055571 Phases=3,Windings=2,Buses=[BMT161254713.1.2.3 BBT127173855.1.2.3.0],Conns=[delta wye],kvs=[13.8 0.22],kvas=[45.000000000 45.000000000],Taps=[1,1.000000000],%loadloss=1.522000000,%noloadloss=0.377777000
new transformer.1071090 Phases=1,Windings=3,Buses=[BMT161007208.2 BBT133556504.1.0 BBT133556504.0.2],Conns=[wye wye wye],kvs=[7.967 0.12 0.12],kvas=[5.000000000 5.000000000 5.000000000],Taps=[1,1.000000000,1.000000000],%loadloss=1.900000000,%noloadloss=0.600000000
new transformer.1086140 Phases=1,Windings=3,Buses=[BMT160601475.1 BBT137990878.1.0 BBT137990878.0.2],Conns=[wye wye wye],kvs=[7.967 0.12 0.12],kvas=[10.000000000 10.000000000 10.000000000],Taps=[1,1.000000000,1.000000000],%loadloss=1.800000000,%noloadloss=0.450000000
new transformer.1086231 Phases=3,Windings=2,Buses=[BMT138015035.1.2.3 BBT138005081.1.2.3.0],Conns=[delta wye],kvs=[13.8 0.22],kvas=[75.000000000 75.000000000],Taps=[1,1.000000000],%loadloss=1.340000000,%noloadloss=0.340000000
new transformer.1087820 Phases=1,Windings=3,Buses=[BMT166051140.2 BBT138353086.1.0 BBT138353086.0.2],Conns=[wye wye wye],kvs=[7.967 0.12 0.12],kvas=[5.000000000 5.000000000 5.000000000],Taps=[1,1.000000000,1.000000000],%loadloss=1.900000000,%noloadloss=0.600000000
new transformer.1087890 Phases=1,Windings=3,Buses=[BMT138364860.3 BBT138363278.1.0 BBT138363278.0.2],Conns=[wye wye wye],kvs=[7.967 0.12 0.12],kvas=[5.000000000 5.000000000 5.000000000],Taps=[1,1.000000000,1.000000000],%loadloss=1.900000000,%noloadloss=0.600000000
new transformer.1104970 Phases=1,Windings=3,Buses=[BMT142928762.2 BBT142927579.1.0 BBT142927579.0.2],Conns=[wye wye wye],kvs=[7.967 0.12 0.12],kvas=[15.000000000 15.000000000 15.000000000],Taps=[1,1.000000000,1.000000000],%loadloss=1.600000000,%noloadloss=0.400000000
new transformer.1119474 Phases=1,Windings=3,Buses=[BMT161212166.1 BBT146680580.1.0 BBT146680580.0.2],Conns=[wye wye wye],kvs=[7.967 0.12 0.12],kvas=[10.000000000 10.000000000 10.000000000],Taps=[1,1.000000000,1.000000000],%loadloss=1.800000000,%noloadloss=0.450000000
new transformer.1391642 Phases=3,Windings=2,Buses=[BMT172941462.1.2.3 BBT148434587.1.2.3.0],Conns=[delta wye],kvs=[13.8 0.22],kvas=[45.000000000 45.000000000],Taps=[1,1.000000000],%loadloss=1.522000000,%noloadloss=0.377777000
new transformer.1404049 Phases=1,Windings=3,Buses=[BMT162954830.3 BBT151416261.1.0 BBT151416261.0.2],Conns=[wye wye wye],kvs=[7.967 0.12 0.12],kvas=[10.000000000 10.000000000 10.000000000],Taps=[1,1.000000000,1.000000000],%loadloss=1.800000000,%noloadloss=0.450000000
new transformer.1404054 Phases=3,Windings=2,Buses=[BMT151418061.1.2.3 BBT151417336.1.2.3.0],Conns=[delta wye],kvs=[13.8 0.22],kvas=[45.000000000 45.000000000],Taps=[1,1.000000000],%loadloss=1.522000000,%noloadloss=0.377777000
new transformer.1409729 Phases=1,Windings=3,Buses=[BMT170305201.2 BBT152777937.1.0 BBT152777937.0.2],Conns=[wye wye wye],kvs=[7.967 0.12 0.12],kvas=[10.000000000 10.000000000 10.000000000],Taps=[1,1.000000000,1.000000000],%loadloss=1.800000000,%noloadloss=0.450000000
new transformer.1409756 Phases=1,Windings=3,Buses=[BMT160801138.3 BBT152783144.1.0 BBT152783144.0.2],Conns=[wye wye wye],kvs=[7.967 0.12 0.12],kvas=[10.000000000 10.000000000 10.000000000],Taps=[1,1.000000000,1.000000000],%loadloss=1.800000000,%noloadloss=0.450000000
new transformer.1409840 Phases=1,Windings=3,Buses=[BMT164849464.2 BBT152803658.1.0 BBT152803658.0.2],Conns=[wye wye wye],kvs=[7.967 0.12 0.12],kvas=[15.000000000 15.000000000 15.000000000],Taps=[1,1.000000000,1.000000000],%loadloss=1.600000000,%noloadloss=0.400000000
new transformer.1415327 Phases=1,Windings=3,Buses=[BMT154712803.3 BBT153968191.1.0 BBT153968191.0.2],Conns=[wye wye wye],kvs=[7.967 0.12 0.12],kvas=[10.000000000 10.000000000 10.000000000],Taps=[1,1.000000000,1.000000000],%loadloss=1.800000000,%noloadloss=0.450000000
...